1

   Abaqus 6.11-1                                  Date 20-Aug-2012   Time 12:22:53
   For use by CRM Engineering Services under license from Dassault Systemes or its subsidiary.

                                                                                 
                                                                                 
 STEP    1     INCREMENT     1     STEP TIME    0.00    


                        S T E P       1     D Y N A M I C   A N A L Y S I S - I M P L I C I T  I N T E G R A T I O N


                                                                                          

          DYNAMIC APPLICATION PACKED SCHEME IS                 MODERATE DISSIPATION
          HILBER-HUGHES-TAYLOR (HHT) TIME INTEGRATOR IS USED

     AUTOMATIC TIME CONTROL WITH -
          A SUGGESTED INITIAL TIME INCREMENT OF                1.000E-03
          AND A TOTAL TIME PERIOD OF                           0.500    
          THE MINIMUM TIME INCREMENT ALLOWED IS                5.000E-07
          THE MAXIMUM TIME INCREMENT ALLOWED IS                1.000E-03

          THE HALF-INCREMENT RESIDUALS WILL NOT BE CALCULATED

          INITIAL ACCELERATIONS WILL NOT BE CALCULATED

          HILBER-HUGHES-TAYLOR METHOD PARAMETERS:  ALPHA   IS  -0.414214    
                                                   BETA    IS   0.500000    
                                                   GAMMA   IS   0.914214    
          AGGRESSIVE   TIME INCREMENTATION IS USED
          STEP AMPLITUDE IS                                    STEP

 CONVERGENCE TOLERANCE PARAMETERS FOR FORCE    
     CRITERION FOR RESIDUAL FORCE     FOR A NONLINEAR PROBLEM          5.000E-03
     CRITERION FOR DISP.    CORRECTION IN A NONLINEAR PROBLEM          1.000E-02
     INITIAL VALUE OF TIME AVERAGE FORCE                               1.000E-02
     AVERAGE FORCE     IS TIME AVERAGE FORCE    
     ALTERNATE CRIT. FOR RESIDUAL FORCE     FOR A NONLINEAR PROBLEM    2.000E-02
     CRITERION FOR ZERO FORCE     RELATIVE TO TIME AVRG. FORCE         1.000E-05
     CRITERION FOR RESIDUAL FORCE     WHEN THERE IS ZERO FLUX          1.000E-05
     CRITERION FOR DISP.    CORRECTION WHEN THERE IS ZERO FLUX         1.000E-03
     CRITERION FOR RESIDUAL FORCE     FOR A LINEAR INCREMENT           1.000E-08
     FIELD CONVERSION RATIO                                             1.00    
     CRITERION FOR ZERO FORCE     REL. TO TIME AVRG. MAX. FORCE        1.000E-05
     CRITERION FOR ZERO DISP.    RELATIVE TO CHARACTERISTIC LENGTH     1.000E-08

 CONVERGENCE TOLERANCE PARAMETERS FOR MOMENT   
     CRITERION FOR RESIDUAL MOMENT    FOR A NONLINEAR PROBLEM          5.000E-03
     CRITERION FOR ROTATION CORRECTION IN A NONLINEAR PROBLEM          1.000E-02
     INITIAL VALUE OF TIME AVERAGE MOMENT                              1.000E-02
     AVERAGE MOMENT    IS TIME AVERAGE MOMENT   
     ALTERNATE CRIT. FOR RESIDUAL MOMENT    FOR A NONLINEAR PROBLEM    2.000E-02
     CRITERION FOR ZERO MOMENT    RELATIVE TO TIME AVRG. MOMENT        1.000E-05
     CRITERION FOR RESIDUAL MOMENT    WHEN THERE IS ZERO FLUX          1.000E-05
     CRITERION FOR ROTATION CORRECTION WHEN THERE IS ZERO FLUX         1.000E-03
     CRITERION FOR RESIDUAL MOMENT    FOR A LINEAR INCREMENT           1.000E-08
     FIELD CONVERSION RATIO                                             1.00    
     CRITERION FOR ZERO MOMENT    REL. TO TIME AVRG. MAX. MOMENT       1.000E-05

     VOLUMETRIC STRAIN COMPATIBILITY TOLERANCE FOR HYBRID SOLIDS       1.000E-05
     AXIAL STRAIN COMPATIBILITY TOLERANCE FOR HYBRID BEAMS             1.000E-05
     TRANS. SHEAR STRAIN COMPATIBILITY TOLERANCE FOR HYBRID BEAMS      1.000E-05
     SOFT CONTACT CONSTRAINT COMPATIBILITY TOLERANCE FOR P>P0          5.000E-03
     SOFT CONTACT CONSTRAINT COMPATIBILITY TOLERANCE FOR P=0.0         0.100    
     CONTACT FORCE ERROR TOLERANCE FOR CONVERT SDI=YES                 1.00    
     DISPLACEMENT COMPATIBILITY TOLERANCE FOR DCOUP ELEMENTS           1.000E-05
     ROTATION COMPATIBILITY TOLERANCE FOR DCOUP ELEMENTS               1.000E-05

 EQUILIBRIUM WILL BE CHECKED FOR SEVERE DISCONTINUITY ITERATIONS

 TIME INCREMENTATION CONTROL PARAMETERS:
     FIRST EQUILIBRIUM ITERATION FOR CONSECUTIVE DIVERGENCE CHECK              4
     EQUILIBRIUM ITERATION AT WHICH LOG. CONVERGENCE RATE CHECK BEGINS         8
     EQUILIBRIUM ITERATION AFTER WHICH ALTERNATE RESIDUAL IS USED              9
     MAXIMUM EQUILIBRIUM ITERATIONS ALLOWED                                   16
     EQUILIBRIUM ITERATION COUNT FOR CUT-BACK IN NEXT INCREMENT               10
     MAXIMUM EQUILIB. ITERS IN TWO INCREMENTS FOR TIME INCREMENT INCREASE      4
     MAXIMUM ITERATIONS FOR SEVERE DISCONTINUITIES                            50
     MAXIMUM CUT-BACKS ALLOWED IN AN INCREMENT                                 5
     MAXIMUM DISCON. ITERS IN TWO INCREMENTS FOR TIME INCREMENT INCREASE      50
     MAXIMUM CONTACT AUGMENTATIONS FOR *SURFACE BEHAVIOR,AUGMENTED LAGRANGE    6
     CUT-BACK FACTOR AFTER DIVERGENCE                                 0.2500    
     CUT-BACK FACTOR FOR TOO SLOW CONVERGENCE                         0.5000    
     CUT-BACK FACTOR AFTER TOO MANY EQUILIBRIUM ITERATIONS            0.7500    
     CUT-BACK FACTOR AFTER TOO MANY SEVERE DISCONTINUITY ITERATIONS   0.2500    
     CUT-BACK FACTOR AFTER PROBLEMS IN ELEMENT ASSEMBLY               0.2500    
     INCREASE FACTOR AFTER TWO INCREMENTS THAT CONVERGE QUICKLY        1.500    
     MAX. TIME INCREMENT INCREASE FACTOR ALLOWED                       1.500    
     MAX. TIME INCREMENT INCREASE FACTOR ALLOWED (DYNAMICS)            1.250    
     MAX. TIME INCREMENT INCREASE FACTOR ALLOWED (DIFFUSION)           2.000    
     MINIMUM TIME INCREMENT RATIO FOR EXTRAPOLATION TO OCCUR          0.1000    
     MAX. RATIO OF TIME INCREMENT TO STABILITY LIMIT                   1.000    
     FRACTION OF STABILITY LIMIT FOR NEW TIME INCREMENT               0.9500    
     TIME INCREMENT INCREASE FACTOR BEFORE A TIME POINT                1.000    
     GLOBAL STABILIZATION CONTROL IS NOT USED

          PRINT OF INCREMENT NUMBER, TIME, ETC., EVERY    1  INCREMENTS

     THE MAXIMUM NUMBER OF INCREMENTS IN THIS STEP IS                    1000

          LARGE DISPLACEMENT THEORY WILL BE USED

     LINEAR EXTRAPOLATION WILL BE USED

     DETAILS REGARDING ACTUAL SOLUTION WAVEFRONT REQUESTED

     DETAILED OUTPUT OF DIAGNOSTICS TO DATABASE REQUESTED

     PRINT OF INCREMENT NUMBER, TIME, ETC., TO THE MESSAGE FILE EVERY     1  INCREMENTS

     EQUATIONS ARE BEING REORDERED TO MINIMIZE WAVEFRONT

     COLLECTING MODEL CONSTRAINT INFORMATION FOR OVERCONSTRAINT CHECKS

     COLLECTING STEP CONSTRAINT INFORMATION FOR OVERCONSTRAINT CHECKS

 ***WARNING: AT LEAST ONE OF THE NODES OF CONNECTOR ELEMENT 12 (ASSEMBLY) DOES 
             NOT HAVE ANY MASS ASSOCIATED WITH IT. THIS COULD LEAD TO EQUATION 
             SOLVER ISSUES (ZERO PIVOTS, NUMERICAL SINGULARITIES, etc.) AND 
             HENCE TO INCORRECT SOLUTIONS WHEN THE CONNECTOR ELEMENT IS 
             ENFORCING KINEMATIC CONSTRAINTS (FROM EITHER INTRINSIC, CONNECTOR 
             STOP/LOCK, or CONNECTOR MOTION). PLEASE ATTACH THE CONNECTOR NODES 
             TO ELEMENTS FOR WHICH MASS IS DEFINED (SUCH AS ELEMENTS TYPE MASS 
             WITH A SMALL MASS) TO RESOLVE THE PROBLEM.

 ***WARNING: AT LEAST ONE OF THE NODES OF CONNECTOR ELEMENT 12 (ASSEMBLY) DOES 
             NOT HAVE ANY ROTARY INERTIA ASSOCIATED WITH IT. THIS COULD LEAD TO 
             EQUATION SOLVER ISSUES (ZERO PIVOTS, NUMERICAL SINGULARITIES, 
             etc.) AND HENCE TO INCORRECT SOLUTIONS WHEN THE CONNECTOR ELEMENT 
             IS ENFORCING KINEMATIC CONSTRAINTS (FROM EITHER INTRINSIC, 
             CONNECTOR STOP/LOCK, or CONNECTOR MOTION). PLEASE ATTACH THE 
             CONNECTOR NODES TO ELEMENTS FOR WHICH ROTARY INERTIA IS DEFINED 
             (SUCH AS ELEMENTS TYPE ROTARYI) TO RESOLVE THE PROBLEM.

 ***WARNING: AT LEAST ONE OF THE NODES OF CONNECTOR ELEMENT 14 (ASSEMBLY) DOES 
             NOT HAVE ANY MASS ASSOCIATED WITH IT. THIS COULD LEAD TO EQUATION 
             SOLVER ISSUES (ZERO PIVOTS, NUMERICAL SINGULARITIES, etc.) AND 
             HENCE TO INCORRECT SOLUTIONS WHEN THE CONNECTOR ELEMENT IS 
             ENFORCING KINEMATIC CONSTRAINTS (FROM EITHER INTRINSIC, CONNECTOR 
             STOP/LOCK, or CONNECTOR MOTION). PLEASE ATTACH THE CONNECTOR NODES 
             TO ELEMENTS FOR WHICH MASS IS DEFINED (SUCH AS ELEMENTS TYPE MASS 
             WITH A SMALL MASS) TO RESOLVE THE PROBLEM.

 ***WARNING: AT LEAST ONE OF THE NODES OF CONNECTOR ELEMENT 14 (ASSEMBLY) DOES 
             NOT HAVE ANY ROTARY INERTIA ASSOCIATED WITH IT. THIS COULD LEAD TO 
             EQUATION SOLVER ISSUES (ZERO PIVOTS, NUMERICAL SINGULARITIES, 
             etc.) AND HENCE TO INCORRECT SOLUTIONS WHEN THE CONNECTOR ELEMENT 
             IS ENFORCING KINEMATIC CONSTRAINTS (FROM EITHER INTRINSIC, 
             CONNECTOR STOP/LOCK, or CONNECTOR MOTION). PLEASE ATTACH THE 
             CONNECTOR NODES TO ELEMENTS FOR WHICH ROTARY INERTIA IS DEFINED 
             (SUCH AS ELEMENTS TYPE ROTARYI) TO RESOLVE THE PROBLEM.

 ***WARNING: AT LEAST ONE OF THE NODES OF CONNECTOR ELEMENT 15 (ASSEMBLY) DOES 
             NOT HAVE ANY MASS ASSOCIATED WITH IT. THIS COULD LEAD TO EQUATION 
             SOLVER ISSUES (ZERO PIVOTS, NUMERICAL SINGULARITIES, etc.) AND 
             HENCE TO INCORRECT SOLUTIONS WHEN THE CONNECTOR ELEMENT IS 
             ENFORCING KINEMATIC CONSTRAINTS (FROM EITHER INTRINSIC, CONNECTOR 
             STOP/LOCK, or CONNECTOR MOTION). PLEASE ATTACH THE CONNECTOR NODES 
             TO ELEMENTS FOR WHICH MASS IS DEFINED (SUCH AS ELEMENTS TYPE MASS 
             WITH A SMALL MASS) TO RESOLVE THE PROBLEM.

 ***WARNING: AT LEAST ONE OF THE NODES OF CONNECTOR ELEMENT 15 (ASSEMBLY) DOES 
             NOT HAVE ANY ROTARY INERTIA ASSOCIATED WITH IT. THIS COULD LEAD TO 
             EQUATION SOLVER ISSUES (ZERO PIVOTS, NUMERICAL SINGULARITIES, 
             etc.) AND HENCE TO INCORRECT SOLUTIONS WHEN THE CONNECTOR ELEMENT 
             IS ENFORCING KINEMATIC CONSTRAINTS (FROM EITHER INTRINSIC, 
             CONNECTOR STOP/LOCK, or CONNECTOR MOTION). PLEASE ATTACH THE 
             CONNECTOR NODES TO ELEMENTS FOR WHICH ROTARY INERTIA IS DEFINED 
             (SUCH AS ELEMENTS TYPE ROTARYI) TO RESOLVE THE PROBLEM.

 ***WARNING: AT LEAST ONE OF THE NODES OF CONNECTOR ELEMENT 16 (ASSEMBLY) DOES 
             NOT HAVE ANY MASS ASSOCIATED WITH IT. THIS COULD LEAD TO EQUATION 
             SOLVER ISSUES (ZERO PIVOTS, NUMERICAL SINGULARITIES, etc.) AND 
             HENCE TO INCORRECT SOLUTIONS WHEN THE CONNECTOR ELEMENT IS 
             ENFORCING KINEMATIC CONSTRAINTS (FROM EITHER INTRINSIC, CONNECTOR 
             STOP/LOCK, or CONNECTOR MOTION). PLEASE ATTACH THE CONNECTOR NODES 
             TO ELEMENTS FOR WHICH MASS IS DEFINED (SUCH AS ELEMENTS TYPE MASS 
             WITH A SMALL MASS) TO RESOLVE THE PROBLEM.

 ***WARNING: AT LEAST ONE OF THE NODES OF CONNECTOR ELEMENT 16 (ASSEMBLY) DOES 
             NOT HAVE ANY ROTARY INERTIA ASSOCIATED WITH IT. THIS COULD LEAD TO 
             EQUATION SOLVER ISSUES (ZERO PIVOTS, NUMERICAL SINGULARITIES, 
             etc.) AND HENCE TO INCORRECT SOLUTIONS WHEN THE CONNECTOR ELEMENT 
             IS ENFORCING KINEMATIC CONSTRAINTS (FROM EITHER INTRINSIC, 
             CONNECTOR STOP/LOCK, or CONNECTOR MOTION). PLEASE ATTACH THE 
             CONNECTOR NODES TO ELEMENTS FOR WHICH ROTARY INERTIA IS DEFINED 
             (SUCH AS ELEMENTS TYPE ROTARYI) TO RESOLVE THE PROBLEM.

 ***WARNING: AT LEAST ONE OF THE NODES OF CONNECTOR ELEMENT 17 (ASSEMBLY) DOES 
             NOT HAVE ANY MASS ASSOCIATED WITH IT. THIS COULD LEAD TO EQUATION 
             SOLVER ISSUES (ZERO PIVOTS, NUMERICAL SINGULARITIES, etc.) AND 
             HENCE TO INCORRECT SOLUTIONS WHEN THE CONNECTOR ELEMENT IS 
             ENFORCING KINEMATIC CONSTRAINTS (FROM EITHER INTRINSIC, CONNECTOR 
             STOP/LOCK, or CONNECTOR MOTION). PLEASE ATTACH THE CONNECTOR NODES 
             TO ELEMENTS FOR WHICH MASS IS DEFINED (SUCH AS ELEMENTS TYPE MASS 
             WITH A SMALL MASS) TO RESOLVE THE PROBLEM.

 ***WARNING: AT LEAST ONE OF THE NODES OF CONNECTOR ELEMENT 17 (ASSEMBLY) DOES 
             NOT HAVE ANY ROTARY INERTIA ASSOCIATED WITH IT. THIS COULD LEAD TO 
             EQUATION SOLVER ISSUES (ZERO PIVOTS, NUMERICAL SINGULARITIES, 
             etc.) AND HENCE TO INCORRECT SOLUTIONS WHEN THE CONNECTOR ELEMENT 
             IS ENFORCING KINEMATIC CONSTRAINTS (FROM EITHER INTRINSIC, 
             CONNECTOR STOP/LOCK, or CONNECTOR MOTION). PLEASE ATTACH THE 
             CONNECTOR NODES TO ELEMENTS FOR WHICH ROTARY INERTIA IS DEFINED 
             (SUCH AS ELEMENTS TYPE ROTARYI) TO RESOLVE THE PROBLEM.


  INCREMENT     1 STARTS. ATTEMPT NUMBER  1, TIME INCREMENT  1.000E-03

  NUMBER OF EQUATIONS =       81     NUMBER OF FLOATING PT. OPERATIONS =  2.70E+04

     CHECK POINT   START OF SOLVER    

     CHECK POINT  END OF SOLVER       

       ELAPSED USER TIME (SEC)      =  1.00000E-02
       ELAPSED SYSTEM TIME (SEC)    =   0.0000    
       ELAPSED TOTAL CPU TIME (SEC) =  1.00000E-02
       ELAPSED WALLCLOCK TIME (SEC) =          0

 ***WARNING: SOLVER PROBLEM.  ZERO PIVOT WHEN PROCESSING ELEMENT 16 (ASSEMBLY) 
             INTERNAL NODE 9 D.O.F. 3
 
 OVERCONSTRAINT CHECKS: 
 An overconstraint was detected at one of the Lagrange multipliers associated 
 with element 16 ASSEMBLY_NAME  ASSEMBLY. There are multiple constraints applied directly or chained 
 constraints that are applied indirectly to this element.
 A list of nodes and chained constraints between these nodes that most likely lead to 
 the detected overconstraint can be printed out to the message file by including 
 *constraint controls, print=yes.


 ***WARNING: SOLVER PROBLEM.  ZERO PIVOT WHEN PROCESSING ELEMENT 13 (ASSEMBLY) 
             INTERNAL NODE 21 D.O.F. 3
 
 OVERCONSTRAINT CHECKS: 
 An overconstraint was detected at one of the Lagrange multipliers associated 
 with element 13 ASSEMBLY_NAME  ASSEMBLY. There are multiple constraints applied directly or chained 
 constraints that are applied indirectly to this element.
 A list of nodes and chained constraints between these nodes that most likely lead to 
 the detected overconstraint can be printed out to the message file by including 
 *constraint controls, print=yes.


 ***WARNING: SOLVER PROBLEM.  ZERO PIVOT WHEN PROCESSING ELEMENT 13 (ASSEMBLY) 
             INTERNAL NODE 21 D.O.F. 4

 ***WARNING: SOLVER PROBLEM.  ZERO PIVOT WHEN PROCESSING ELEMENT 13 (ASSEMBLY) 
             INTERNAL NODE 21 D.O.F. 5

 ***WARNING: SOLVER PROBLEM.  ZERO PIVOT WHEN PROCESSING ELEMENT 15 (ASSEMBLY) 
             INTERNAL NODE 13 D.O.F. 3
 
 OVERCONSTRAINT CHECKS: 
 An overconstraint was detected at one of the Lagrange multipliers associated 
 with element 15 ASSEMBLY_NAME  ASSEMBLY. There are multiple constraints applied directly or chained 
 constraints that are applied indirectly to this element.
 A list of nodes and chained constraints between these nodes that most likely lead to 
 the detected overconstraint can be printed out to the message file by including 
 *constraint controls, print=yes.


 ***WARNING: SOLVER PROBLEM.  ZERO PIVOT WHEN PROCESSING ELEMENT 11 (ASSEMBLY) 
             INTERNAL NODE 29 D.O.F. 3
 
 OVERCONSTRAINT CHECKS: 
 An overconstraint was detected at one of the Lagrange multipliers associated 
 with element 11 ASSEMBLY_NAME  ASSEMBLY. There are multiple constraints applied directly or chained 
 constraints that are applied indirectly to this element.
 A list of nodes and chained constraints between these nodes that most likely lead to 
 the detected overconstraint can be printed out to the message file by including 
 *constraint controls, print=yes.


 ***WARNING: SOLVER PROBLEM.  ZERO PIVOT WHEN PROCESSING ELEMENT 11 (ASSEMBLY) 
             INTERNAL NODE 29 D.O.F. 4

 ***WARNING: SOLVER PROBLEM.  ZERO PIVOT WHEN PROCESSING ELEMENT 11 (ASSEMBLY) 
             INTERNAL NODE 29 D.O.F. 5

 ***WARNING: SOLVER PROBLEM.  ZERO PIVOT WHEN PROCESSING ELEMENT 17 (ASSEMBLY) 
             INTERNAL NODE 4 D.O.F. 3
 
 OVERCONSTRAINT CHECKS: 
 An overconstraint was detected at one of the Lagrange multipliers associated 
 with element 17 ASSEMBLY_NAME  ASSEMBLY. There are multiple constraints applied directly or chained 
 constraints that are applied indirectly to this element.
 A list of nodes and chained constraints between these nodes that most likely lead to 
 the detected overconstraint can be printed out to the message file by including 
 *constraint controls, print=yes.


 ***WARNING: SOLVER PROBLEM.  ZERO PIVOT WHEN PROCESSING ELEMENT 14 (ASSEMBLY) 
             INTERNAL NODE 17 D.O.F. 3
 
 OVERCONSTRAINT CHECKS: 
 An overconstraint was detected at one of the Lagrange multipliers associated 
 with element 14 ASSEMBLY_NAME  ASSEMBLY. There are multiple constraints applied directly or chained 
 constraints that are applied indirectly to this element.
 A list of nodes and chained constraints between these nodes that most likely lead to 
 the detected overconstraint can be printed out to the message file by including 
 *constraint controls, print=yes.


 ***WARNING: SOLVER PROBLEM.  ZERO PIVOT WHEN PROCESSING ELEMENT 14 (ASSEMBLY) 
             INTERNAL NODE 17 D.O.F. 4

 ***WARNING: SOLVER PROBLEM.  ZERO PIVOT WHEN PROCESSING ELEMENT 14 (ASSEMBLY) 
             INTERNAL NODE 17 D.O.F. 5

 ***WARNING: SOLVER PROBLEM.  ZERO PIVOT WHEN PROCESSING ELEMENT 12 (ASSEMBLY) 
             INTERNAL NODE 25 D.O.F. 4
 
 OVERCONSTRAINT CHECKS: 
 An overconstraint was detected at one of the Lagrange multipliers associated 
 with element 12 ASSEMBLY_NAME  ASSEMBLY. There are multiple constraints applied directly or chained 
 constraints that are applied indirectly to this element.
 A list of nodes and chained constraints between these nodes that most likely lead to 
 the detected overconstraint can be printed out to the message file by including 
 *constraint controls, print=yes.


 ***WARNING: SOLVER PROBLEM.  ZERO PIVOT WHEN PROCESSING ELEMENT 12 (ASSEMBLY) 
             INTERNAL NODE 25 D.O.F. 5

 ***WARNING: SOLVER PROBLEM.  ZERO PIVOT WHEN PROCESSING ELEMENT 12 (ASSEMBLY) 
             INTERNAL NODE 25 D.O.F. 3

 ***WARNING: Solver problem. Zero pivot when processing D.O.F. 5 at one or more 
             of the internal nodes of 4 elements. The elements have been 
             identified in element set WarnElemSolvProbZeroPiv_5_1_1_1_1.

 ***WARNING: Solver problem. Zero pivot when processing D.O.F. 4 at one or more 
             of the internal nodes of 4 elements. The elements have been 
             identified in element set WarnElemSolvProbZeroPiv_4_1_1_1_1.

 ***WARNING: Solver problem. Zero pivot when processing D.O.F. 3 at one or more 
             of the internal nodes of 7 elements. The elements have been 
             identified in element set WarnElemSolvProbZeroPiv_3_1_1_1_1.

               CONVERGENCE CHECKS FOR EQUILIBRIUM ITERATION     1


 AVERAGE FORCE                       25.5       TIME AVG. FORCE        25.5    
 LARGEST RESIDUAL FORCE            -5.770E-03   AT NODE          1   DOF  1
   INSTANCE:                                                                                 
 LARGEST INCREMENT OF DISP.         2.920E-05   AT NODE          6   DOF  2
   INSTANCE: {assembly node}                                                                 
 LARGEST CORRECTION TO DISP.        2.920E-05   AT NODE          6   DOF  2
   INSTANCE: {assembly node}                                                                 
 ESTIMATE OF DISP.    CORRECTION    1.396E-10
 FORCE     EQUILIB. ACCEPTED BASED ON SMALL RESIDUAL AND ESTIMATED CORRECTION

 AVERAGE MOMENT                     0.176       TIME AVG. MOMENT      0.176    
 LARGEST RESIDUAL MOMENT           -1.094E-10   AT NODE          6   DOF  6
   INSTANCE:                                                                                 
 LARGEST INCREMENT OF ROTATION     -4.130E-05   AT NODE          2   DOF  6
   INSTANCE: {assembly node}                                                                 
 LARGEST CORRECTION TO ROTATION    -4.130E-05   AT NODE          2   DOF  6
   INSTANCE: {assembly node}                                                                 
          THE MOMENT    EQUILIBRIUM RESPONSE WAS LINEAR IN THIS INCREMENT

 ITERATION SUMMARY FOR THE INCREMENT:   1 TOTAL ITERATIONS, OF WHICH
   0 ARE SEVERE DISCONTINUITY ITERATIONS AND  1 ARE EQUILIBRIUM ITERATIONS.

 TIME INCREMENT COMPLETED  1.000E-03,  FRACTION OF STEP COMPLETED  2.000E-03
 STEP TIME COMPLETED       1.000E-03,  TOTAL TIME COMPLETED        1.000E-03


  INCREMENT     2 STARTS. ATTEMPT NUMBER  1, TIME INCREMENT  1.000E-03

  NUMBER OF EQUATIONS =       81     NUMBER OF FLOATING PT. OPERATIONS =  2.70E+04

     CHECK POINT   START OF SOLVER    

     CHECK POINT  END OF SOLVER       

       ELAPSED USER TIME (SEC)      =  1.00000E-02
       ELAPSED SYSTEM TIME (SEC)    =   0.0000    
       ELAPSED TOTAL CPU TIME (SEC) =  1.00000E-02
       ELAPSED WALLCLOCK TIME (SEC) =          0

 ***WARNING: SOLVER PROBLEM.  ZERO PIVOT WHEN PROCESSING ELEMENT 16 (ASSEMBLY) 
             INTERNAL NODE 9 D.O.F. 3
 
 OVERCONSTRAINT CHECKS: 
 An overconstraint was detected at one of the Lagrange multipliers associated 
 with element 16 ASSEMBLY_NAME  ASSEMBLY. There are multiple constraints applied directly or chained 
 constraints that are applied indirectly to this element.
 A list of nodes and chained constraints between these nodes that most likely lead to 
 the detected overconstraint can be printed out to the message file by including 
 *constraint controls, print=yes.


 ***WARNING: SOLVER PROBLEM.  ZERO PIVOT WHEN PROCESSING ELEMENT 13 (ASSEMBLY) 
             INTERNAL NODE 21 D.O.F. 3
 
 OVERCONSTRAINT CHECKS: 
 An overconstraint was detected at one of the Lagrange multipliers associated 
 with element 13 ASSEMBLY_NAME  ASSEMBLY. There are multiple constraints applied directly or chained 
 constraints that are applied indirectly to this element.
 A list of nodes and chained constraints between these nodes that most likely lead to 
 the detected overconstraint can be printed out to the message file by including 
 *constraint controls, print=yes.


 ***WARNING: SOLVER PROBLEM.  ZERO PIVOT WHEN PROCESSING ELEMENT 13 (ASSEMBLY) 
             INTERNAL NODE 21 D.O.F. 4

 ***WARNING: SOLVER PROBLEM.  ZERO PIVOT WHEN PROCESSING ELEMENT 13 (ASSEMBLY) 
             INTERNAL NODE 21 D.O.F. 5

 ***WARNING: SOLVER PROBLEM.  ZERO PIVOT WHEN PROCESSING ELEMENT 15 (ASSEMBLY) 
             INTERNAL NODE 13 D.O.F. 3
 
 OVERCONSTRAINT CHECKS: 
 An overconstraint was detected at one of the Lagrange multipliers associated 
 with element 15 ASSEMBLY_NAME  ASSEMBLY. There are multiple constraints applied directly or chained 
 constraints that are applied indirectly to this element.
 A list of nodes and chained constraints between these nodes that most likely lead to 
 the detected overconstraint can be printed out to the message file by including 
 *constraint controls, print=yes.


 ***WARNING: SOLVER PROBLEM.  ZERO PIVOT WHEN PROCESSING ELEMENT 11 (ASSEMBLY) 
             INTERNAL NODE 29 D.O.F. 3
 
 OVERCONSTRAINT CHECKS: 
 An overconstraint was detected at one of the Lagrange multipliers associated 
 with element 11 ASSEMBLY_NAME  ASSEMBLY. There are multiple constraints applied directly or chained 
 constraints that are applied indirectly to this element.
 A list of nodes and chained constraints between these nodes that most likely lead to 
 the detected overconstraint can be printed out to the message file by including 
 *constraint controls, print=yes.


 ***WARNING: SOLVER PROBLEM.  ZERO PIVOT WHEN PROCESSING ELEMENT 11 (ASSEMBLY) 
             INTERNAL NODE 29 D.O.F. 4

 ***WARNING: SOLVER PROBLEM.  ZERO PIVOT WHEN PROCESSING ELEMENT 11 (ASSEMBLY) 
             INTERNAL NODE 29 D.O.F. 5

 ***WARNING: SOLVER PROBLEM.  ZERO PIVOT WHEN PROCESSING ELEMENT 17 (ASSEMBLY) 
             INTERNAL NODE 4 D.O.F. 3
 
 OVERCONSTRAINT CHECKS: 
 An overconstraint was detected at one of the Lagrange multipliers associated 
 with element 17 ASSEMBLY_NAME  ASSEMBLY. There are multiple constraints applied directly or chained 
 constraints that are applied indirectly to this element.
 A list of nodes and chained constraints between these nodes that most likely lead to 
 the detected overconstraint can be printed out to the message file by including 
 *constraint controls, print=yes.


 ***WARNING: SOLVER PROBLEM.  ZERO PIVOT WHEN PROCESSING ELEMENT 14 (ASSEMBLY) 
             INTERNAL NODE 17 D.O.F. 3
 
 OVERCONSTRAINT CHECKS: 
 An overconstraint was detected at one of the Lagrange multipliers associated 
 with element 14 ASSEMBLY_NAME  ASSEMBLY. There are multiple constraints applied directly or chained 
 constraints that are applied indirectly to this element.
 A list of nodes and chained constraints between these nodes that most likely lead to 
 the detected overconstraint can be printed out to the message file by including 
 *constraint controls, print=yes.


 ***WARNING: SOLVER PROBLEM.  ZERO PIVOT WHEN PROCESSING ELEMENT 14 (ASSEMBLY) 
             INTERNAL NODE 17 D.O.F. 4

 ***WARNING: SOLVER PROBLEM.  ZERO PIVOT WHEN PROCESSING ELEMENT 14 (ASSEMBLY) 
             INTERNAL NODE 17 D.O.F. 5

 ***WARNING: SOLVER PROBLEM.  ZERO PIVOT WHEN PROCESSING ELEMENT 12 (ASSEMBLY) 
             INTERNAL NODE 25 D.O.F. 4
 
 OVERCONSTRAINT CHECKS: 
 An overconstraint was detected at one of the Lagrange multipliers associated 
 with element 12 ASSEMBLY_NAME  ASSEMBLY. There are multiple constraints applied directly or chained 
 constraints that are applied indirectly to this element.
 A list of nodes and chained constraints between these nodes that most likely lead to 
 the detected overconstraint can be printed out to the message file by including 
 *constraint controls, print=yes.


 ***WARNING: SOLVER PROBLEM.  ZERO PIVOT WHEN PROCESSING ELEMENT 12 (ASSEMBLY) 
             INTERNAL NODE 25 D.O.F. 5

 ***WARNING: SOLVER PROBLEM.  ZERO PIVOT WHEN PROCESSING ELEMENT 12 (ASSEMBLY) 
             INTERNAL NODE 25 D.O.F. 3

 ***WARNING: Solver problem. Zero pivot when processing D.O.F. 5 at one or more 
             of the internal nodes of 4 elements. The elements have been 
             identified in element set WarnElemSolvProbZeroPiv_5_1_2_1_1.

 ***WARNING: Solver problem. Zero pivot when processing D.O.F. 4 at one or more 
             of the internal nodes of 4 elements. The elements have been 
             identified in element set WarnElemSolvProbZeroPiv_4_1_2_1_1.

 ***WARNING: Solver problem. Zero pivot when processing D.O.F. 3 at one or more 
             of the internal nodes of 7 elements. The elements have been 
             identified in element set WarnElemSolvProbZeroPiv_3_1_2_1_1.

               CONVERGENCE CHECKS FOR EQUILIBRIUM ITERATION     1


 AVERAGE FORCE                       142.       TIME AVG. FORCE        83.9    
 LARGEST RESIDUAL FORCE             1.463E-02   AT NODE          1   DOF  1
   INSTANCE:                                                                                 
 LARGEST INCREMENT OF DISP.         1.033E-04   AT NODE          6   DOF  2
   INSTANCE: {assembly node}                                                                 
 LARGEST CORRECTION TO DISP.        7.405E-05   AT NODE          5   DOF  2
   INSTANCE: {assembly node}                                                                 
 ESTIMATE OF DISP.    CORRECTION   -4.222E-10
 FORCE     EQUILIB. ACCEPTED BASED ON SMALL RESIDUAL AND ESTIMATED CORRECTION

 AVERAGE MOMENT                      1.90       TIME AVG. MOMENT       1.04    
 LARGEST RESIDUAL MOMENT           -1.314E-09   AT NODE          6   DOF  6
   INSTANCE:                                                                                 
 LARGEST INCREMENT OF ROTATION     -1.460E-04   AT NODE          1   DOF  6
   INSTANCE: {assembly node}                                                                 
 LARGEST CORRECTION TO ROTATION    -1.047E-04   AT NODE          1   DOF  6
   INSTANCE: {assembly node}                                                                 
          THE MOMENT    EQUILIBRIUM RESPONSE WAS LINEAR IN THIS INCREMENT

 ITERATION SUMMARY FOR THE INCREMENT:   1 TOTAL ITERATIONS, OF WHICH
   0 ARE SEVERE DISCONTINUITY ITERATIONS AND  1 ARE EQUILIBRIUM ITERATIONS.

 TIME INCREMENT COMPLETED  1.000E-03,  FRACTION OF STEP COMPLETED  4.000E-03
 STEP TIME COMPLETED       2.000E-03,  TOTAL TIME COMPLETED        2.000E-03


  INCREMENT     3 STARTS. ATTEMPT NUMBER  1, TIME INCREMENT  1.000E-03

  NUMBER OF EQUATIONS =       81     NUMBER OF FLOATING PT. OPERATIONS =  2.70E+04

     CHECK POINT   START OF SOLVER    

     CHECK POINT  END OF SOLVER       

       ELAPSED USER TIME (SEC)      =   0.0000    
       ELAPSED SYSTEM TIME (SEC)    =   0.0000    
       ELAPSED TOTAL CPU TIME (SEC) =   0.0000    
       ELAPSED WALLCLOCK TIME (SEC) =          0

 ***WARNING: SOLVER PROBLEM.  ZERO PIVOT WHEN PROCESSING ELEMENT 16 (ASSEMBLY) 
             INTERNAL NODE 9 D.O.F. 3
 
 OVERCONSTRAINT CHECKS: 
 An overconstraint was detected at one of the Lagrange multipliers associated 
 with element 16 ASSEMBLY_NAME  ASSEMBLY. There are multiple constraints applied directly or chained 
 constraints that are applied indirectly to this element.
 A list of nodes and chained constraints between these nodes that most likely lead to 
 the detected overconstraint can be printed out to the message file by including 
 *constraint controls, print=yes.


 ***WARNING: SOLVER PROBLEM.  ZERO PIVOT WHEN PROCESSING ELEMENT 13 (ASSEMBLY) 
             INTERNAL NODE 21 D.O.F. 3
 
 OVERCONSTRAINT CHECKS: 
 An overconstraint was detected at one of the Lagrange multipliers associated 
 with element 13 ASSEMBLY_NAME  ASSEMBLY. There are multiple constraints applied directly or chained 
 constraints that are applied indirectly to this element.
 A list of nodes and chained constraints between these nodes that most likely lead to 
 the detected overconstraint can be printed out to the message file by including 
 *constraint controls, print=yes.


 ***WARNING: SOLVER PROBLEM.  ZERO PIVOT WHEN PROCESSING ELEMENT 13 (ASSEMBLY) 
             INTERNAL NODE 21 D.O.F. 4

 ***WARNING: SOLVER PROBLEM.  ZERO PIVOT WHEN PROCESSING ELEMENT 13 (ASSEMBLY) 
             INTERNAL NODE 21 D.O.F. 5

 ***WARNING: SOLVER PROBLEM.  ZERO PIVOT WHEN PROCESSING ELEMENT 15 (ASSEMBLY) 
             INTERNAL NODE 13 D.O.F. 3
 
 OVERCONSTRAINT CHECKS: 
 An overconstraint was detected at one of the Lagrange multipliers associated 
 with element 15 ASSEMBLY_NAME  ASSEMBLY. There are multiple constraints applied directly or chained 
 constraints that are applied indirectly to this element.
 A list of nodes and chained constraints between these nodes that most likely lead to 
 the detected overconstraint can be printed out to the message file by including 
 *constraint controls, print=yes.


 ***WARNING: SOLVER PROBLEM.  ZERO PIVOT WHEN PROCESSING ELEMENT 11 (ASSEMBLY) 
             INTERNAL NODE 29 D.O.F. 3
 
 OVERCONSTRAINT CHECKS: 
 An overconstraint was detected at one of the Lagrange multipliers associated 
 with element 11 ASSEMBLY_NAME  ASSEMBLY. There are multiple constraints applied directly or chained 
 constraints that are applied indirectly to this element.
 A list of nodes and chained constraints between these nodes that most likely lead to 
 the detected overconstraint can be printed out to the message file by including 
 *constraint controls, print=yes.


 ***WARNING: SOLVER PROBLEM.  ZERO PIVOT WHEN PROCESSING ELEMENT 11 (ASSEMBLY) 
             INTERNAL NODE 29 D.O.F. 4

 ***WARNING: SOLVER PROBLEM.  ZERO PIVOT WHEN PROCESSING ELEMENT 11 (ASSEMBLY) 
             INTERNAL NODE 29 D.O.F. 5

 ***WARNING: SOLVER PROBLEM.  ZERO PIVOT WHEN PROCESSING ELEMENT 17 (ASSEMBLY) 
             INTERNAL NODE 4 D.O.F. 3
 
 OVERCONSTRAINT CHECKS: 
 An overconstraint was detected at one of the Lagrange multipliers associated 
 with element 17 ASSEMBLY_NAME  ASSEMBLY. There are multiple constraints applied directly or chained 
 constraints that are applied indirectly to this element.
 A list of nodes and chained constraints between these nodes that most likely lead to 
 the detected overconstraint can be printed out to the message file by including 
 *constraint controls, print=yes.


 ***WARNING: SOLVER PROBLEM.  ZERO PIVOT WHEN PROCESSING ELEMENT 14 (ASSEMBLY) 
             INTERNAL NODE 17 D.O.F. 3
 
 OVERCONSTRAINT CHECKS: 
 An overconstraint was detected at one of the Lagrange multipliers associated 
 with element 14 ASSEMBLY_NAME  ASSEMBLY. There are multiple constraints applied directly or chained 
 constraints that are applied indirectly to this element.
 A list of nodes and chained constraints between these nodes that most likely lead to 
 the detected overconstraint can be printed out to the message file by including 
 *constraint controls, print=yes.


 ***WARNING: SOLVER PROBLEM.  ZERO PIVOT WHEN PROCESSING ELEMENT 14 (ASSEMBLY) 
             INTERNAL NODE 17 D.O.F. 4

 ***WARNING: SOLVER PROBLEM.  ZERO PIVOT WHEN PROCESSING ELEMENT 14 (ASSEMBLY) 
             INTERNAL NODE 17 D.O.F. 5

 ***WARNING: SOLVER PROBLEM.  ZERO PIVOT WHEN PROCESSING ELEMENT 12 (ASSEMBLY) 
             INTERNAL NODE 25 D.O.F. 4
 
 OVERCONSTRAINT CHECKS: 
 An overconstraint was detected at one of the Lagrange multipliers associated 
 with element 12 ASSEMBLY_NAME  ASSEMBLY. There are multiple constraints applied directly or chained 
 constraints that are applied indirectly to this element.
 A list of nodes and chained constraints between these nodes that most likely lead to 
 the detected overconstraint can be printed out to the message file by including 
 *constraint controls, print=yes.


 ***WARNING: SOLVER PROBLEM.  ZERO PIVOT WHEN PROCESSING ELEMENT 12 (ASSEMBLY) 
             INTERNAL NODE 25 D.O.F. 5

 ***WARNING: SOLVER PROBLEM.  ZERO PIVOT WHEN PROCESSING ELEMENT 12 (ASSEMBLY) 
             INTERNAL NODE 25 D.O.F. 3

 ***WARNING: Solver problem. Zero pivot when processing D.O.F. 5 at one or more 
             of the internal nodes of 4 elements. The elements have been 
             identified in element set WarnElemSolvProbZeroPiv_5_1_3_1_1.

 ***WARNING: Solver problem. Zero pivot when processing D.O.F. 4 at one or more 
             of the internal nodes of 4 elements. The elements have been 
             identified in element set WarnElemSolvProbZeroPiv_4_1_3_1_1.

 ***WARNING: Solver problem. Zero pivot when processing D.O.F. 3 at one or more 
             of the internal nodes of 7 elements. The elements have been 
             identified in element set WarnElemSolvProbZeroPiv_3_1_3_1_1.

               CONVERGENCE CHECKS FOR EQUILIBRIUM ITERATION     1


 AVERAGE FORCE                       142.       TIME AVG. FORCE        103.    
 LARGEST RESIDUAL FORCE            -4.658E-06   AT NODE          3   DOF  2
   INSTANCE:                                                                                 
 LARGEST INCREMENT OF DISP.         1.994E-04   AT NODE          6   DOF  2
   INSTANCE: {assembly node}                                                                 
 LARGEST CORRECTION TO DISP.        9.619E-05   AT NODE          5   DOF  2
   INSTANCE: {assembly node}                                                                 
 ESTIMATE OF DISP.    CORRECTION    1.275E-13
 FORCE     EQUILIB. ACCEPTED BASED ON SMALL RESIDUAL AND ESTIMATED CORRECTION

 AVERAGE MOMENT                      1.90       TIME AVG. MOMENT       1.33    
 LARGEST RESIDUAL MOMENT           -3.034E-09   AT NODE          1   DOF  6
   INSTANCE:                                                                                 
 LARGEST INCREMENT OF ROTATION     -2.820E-04   AT NODE          1   DOF  6
   INSTANCE: {assembly node}                                                                 
 LARGEST CORRECTION TO ROTATION    -1.359E-04   AT NODE          2   DOF  6
   INSTANCE: {assembly node}                                                                 
          THE MOMENT    EQUILIBRIUM RESPONSE WAS LINEAR IN THIS INCREMENT

 ITERATION SUMMARY FOR THE INCREMENT:   1 TOTAL ITERATIONS, OF WHICH
   0 ARE SEVERE DISCONTINUITY ITERATIONS AND  1 ARE EQUILIBRIUM ITERATIONS.

 TIME INCREMENT COMPLETED  1.000E-03,  FRACTION OF STEP COMPLETED  6.000E-03
 STEP TIME COMPLETED       3.000E-03,  TOTAL TIME COMPLETED        3.000E-03


  INCREMENT     4 STARTS. ATTEMPT NUMBER  1, TIME INCREMENT  1.000E-03

  NUMBER OF EQUATIONS =       81     NUMBER OF FLOATING PT. OPERATIONS =  2.70E+04

     CHECK POINT   START OF SOLVER    

     CHECK POINT  END OF SOLVER       

       ELAPSED USER TIME (SEC)      =  1.00000E-02
       ELAPSED SYSTEM TIME (SEC)    =   0.0000    
       ELAPSED TOTAL CPU TIME (SEC) =  1.00000E-02
       ELAPSED WALLCLOCK TIME (SEC) =          0

 ***WARNING: SOLVER PROBLEM.  ZERO PIVOT WHEN PROCESSING ELEMENT 16 (ASSEMBLY) 
             INTERNAL NODE 9 D.O.F. 3
 
 OVERCONSTRAINT CHECKS: 
 An overconstraint was detected at one of the Lagrange multipliers associated 
 with element 16 ASSEMBLY_NAME  ASSEMBLY. There are multiple constraints applied directly or chained 
 constraints that are applied indirectly to this element.
 A list of nodes and chained constraints between these nodes that most likely lead to 
 the detected overconstraint can be printed out to the message file by including 
 *constraint controls, print=yes.


 ***WARNING: SOLVER PROBLEM.  ZERO PIVOT WHEN PROCESSING ELEMENT 13 (ASSEMBLY) 
             INTERNAL NODE 21 D.O.F. 3
 
 OVERCONSTRAINT CHECKS: 
 An overconstraint was detected at one of the Lagrange multipliers associated 
 with element 13 ASSEMBLY_NAME  ASSEMBLY. There are multiple constraints applied directly or chained 
 constraints that are applied indirectly to this element.
 A list of nodes and chained constraints between these nodes that most likely lead to 
 the detected overconstraint can be printed out to the message file by including 
 *constraint controls, print=yes.


 ***WARNING: SOLVER PROBLEM.  ZERO PIVOT WHEN PROCESSING ELEMENT 13 (ASSEMBLY) 
             INTERNAL NODE 21 D.O.F. 4

 ***WARNING: SOLVER PROBLEM.  ZERO PIVOT WHEN PROCESSING ELEMENT 13 (ASSEMBLY) 
             INTERNAL NODE 21 D.O.F. 5

 ***WARNING: OVERCONSTRAINT CHECKS: THE MAXIMUM NUMBER OF ZERO PIVOT-BASED 
             OVERCONSTRAINT CHECKS MESSAGES PRINTED FOR THIS STEP HAS BEEN 
             REACHED. THE OUTPUT OF THESE MESSAGES IS SUPRESSED UNTIL THE END 
             OF THE STEP TO AVOID POTENTIALLY LARGE INCREASES IN THE SYSTEM 
             TIME NEEDED TO COMPLETE THE ANALYSIS.

 ***WARNING: Solver problem. Zero pivot when processing D.O.F. 5 at one or more 
             of the internal nodes of 1 elements. The elements have been 
             identified in element set WarnElemSolvProbZeroPiv_5_1_4_1_1.

 ***WARNING: Solver problem. Zero pivot when processing D.O.F. 4 at one or more 
             of the internal nodes of 1 elements. The elements have been 
             identified in element set WarnElemSolvProbZeroPiv_4_1_4_1_1.

 ***WARNING: Solver problem. Zero pivot when processing D.O.F. 3 at one or more 
             of the internal nodes of 2 elements. The elements have been 
             identified in element set WarnElemSolvProbZeroPiv_3_1_4_1_1.

               CONVERGENCE CHECKS FOR EQUILIBRIUM ITERATION     1


 AVERAGE FORCE                       142.       TIME AVG. FORCE        113.    
 LARGEST RESIDUAL FORCE            -9.748E-06   AT NODE          1   DOF  2
   INSTANCE:                                                                                 
 LARGEST INCREMENT OF DISP.         2.992E-04   AT NODE          5   DOF  2
   INSTANCE: {assembly node}                                                                 
 LARGEST CORRECTION TO DISP.        9.976E-05   AT NODE          5   DOF  2
   INSTANCE: {assembly node}                                                                 
 ESTIMATE OF DISP.    CORRECTION    2.669E-13
 FORCE     EQUILIB. ACCEPTED BASED ON SMALL RESIDUAL AND ESTIMATED CORRECTION

 AVERAGE MOMENT                      1.90       TIME AVG. MOMENT       1.47    
 LARGEST RESIDUAL MOMENT           -7.972E-09   AT NODE          1   DOF  6
   INSTANCE:                                                                                 
 LARGEST INCREMENT OF ROTATION     -4.228E-04   AT NODE          5   DOF  6
   INSTANCE: {assembly node}                                                                 
 LARGEST CORRECTION TO ROTATION    -1.409E-04   AT NODE          5   DOF  6
   INSTANCE: {assembly node}                                                                 
          THE MOMENT    EQUILIBRIUM RESPONSE WAS LINEAR IN THIS INCREMENT

 ITERATION SUMMARY FOR THE INCREMENT:   1 TOTAL ITERATIONS, OF WHICH
   0 ARE SEVERE DISCONTINUITY ITERATIONS AND  1 ARE EQUILIBRIUM ITERATIONS.

 TIME INCREMENT COMPLETED  1.000E-03,  FRACTION OF STEP COMPLETED  8.000E-03
 STEP TIME COMPLETED       4.000E-03,  TOTAL TIME COMPLETED        4.000E-03


  INCREMENT     5 STARTS. ATTEMPT NUMBER  1, TIME INCREMENT  1.000E-03

  NUMBER OF EQUATIONS =       81     NUMBER OF FLOATING PT. OPERATIONS =  2.70E+04

     CHECK POINT   START OF SOLVER    

     CHECK POINT  END OF SOLVER       

       ELAPSED USER TIME (SEC)      =  1.00000E-02
       ELAPSED SYSTEM TIME (SEC)    =   0.0000    
       ELAPSED TOTAL CPU TIME (SEC) =  1.00000E-02
       ELAPSED WALLCLOCK TIME (SEC) =          0

               CONVERGENCE CHECKS FOR EQUILIBRIUM ITERATION     1


 AVERAGE FORCE                       142.       TIME AVG. FORCE        119.    
 LARGEST RESIDUAL FORCE            -8.101E-06   AT NODE          3   DOF  1
   INSTANCE:                                                                                 
 LARGEST INCREMENT OF DISP.         3.990E-04   AT NODE          5   DOF  2
   INSTANCE: {assembly node}                                                                 
 LARGEST CORRECTION TO DISP.        9.982E-05   AT NODE          5   DOF  2
   INSTANCE: {assembly node}                                                                 
 ESTIMATE OF DISP.    CORRECTION    2.219E-13
 FORCE     EQUILIB. ACCEPTED BASED ON SMALL RESIDUAL AND ESTIMATED CORRECTION

 AVERAGE MOMENT                      1.90       TIME AVG. MOMENT       1.56    
 LARGEST RESIDUAL MOMENT           -1.639E-08   AT NODE          1   DOF  6
   INSTANCE:                                                                                 
 LARGEST INCREMENT OF ROTATION     -5.636E-04   AT NODE          2   DOF  6
   INSTANCE: {assembly node}                                                                 
 LARGEST CORRECTION TO ROTATION    -1.408E-04   AT NODE          2   DOF  6
   INSTANCE: {assembly node}                                                                 
 ESTIMATE OF ROTATION CORRECTION   -8.195E-12
 MOMENT    EQUILIB. ACCEPTED BASED ON SMALL RESIDUAL AND ESTIMATED CORRECTION

 ITERATION SUMMARY FOR THE INCREMENT:   1 TOTAL ITERATIONS, OF WHICH
   0 ARE SEVERE DISCONTINUITY ITERATIONS AND  1 ARE EQUILIBRIUM ITERATIONS.

 TIME INCREMENT COMPLETED  1.000E-03,  FRACTION OF STEP COMPLETED  1.000E-02
 STEP TIME COMPLETED       5.000E-03,  TOTAL TIME COMPLETED        5.000E-03


  INCREMENT     6 STARTS. ATTEMPT NUMBER  1, TIME INCREMENT  1.000E-03

  NUMBER OF EQUATIONS =       81     NUMBER OF FLOATING PT. OPERATIONS =  2.70E+04

     CHECK POINT   START OF SOLVER    

     CHECK POINT  END OF SOLVER       

       ELAPSED USER TIME (SEC)      =  1.00000E-02
       ELAPSED SYSTEM TIME (SEC)    =  1.00000E-02
       ELAPSED TOTAL CPU TIME (SEC) =  2.00000E-02
       ELAPSED WALLCLOCK TIME (SEC) =          0

               CONVERGENCE CHECKS FOR EQUILIBRIUM ITERATION     1


 AVERAGE FORCE                       142.       TIME AVG. FORCE        123.    
 LARGEST RESIDUAL FORCE            -7.118E-06   AT NODE          1   DOF  2
   INSTANCE:                                                                                 
 LARGEST INCREMENT OF DISP.         4.989E-04   AT NODE          5   DOF  2
   INSTANCE: {assembly node}                                                                 
 LARGEST CORRECTION TO DISP.        9.989E-05   AT NODE          6   DOF  2
   INSTANCE: {assembly node}                                                                 
 ESTIMATE OF DISP.    CORRECTION    1.950E-13
 FORCE     EQUILIB. ACCEPTED BASED ON SMALL RESIDUAL AND ESTIMATED CORRECTION

 AVERAGE MOMENT                      1.90       TIME AVG. MOMENT       1.61    
 LARGEST RESIDUAL MOMENT           -2.820E-08   AT NODE          1   DOF  6
   INSTANCE:                                                                                 
 LARGEST INCREMENT OF ROTATION     -7.043E-04   AT NODE          1   DOF  6
   INSTANCE: {assembly node}                                                                 
 LARGEST CORRECTION TO ROTATION    -1.407E-04   AT NODE          1   DOF  6
   INSTANCE: {assembly node}                                                                 
 ESTIMATE OF ROTATION CORRECTION   -1.410E-11
 MOMENT    EQUILIB. ACCEPTED BASED ON SMALL RESIDUAL AND ESTIMATED CORRECTION

 ITERATION SUMMARY FOR THE INCREMENT:   1 TOTAL ITERATIONS, OF WHICH
   0 ARE SEVERE DISCONTINUITY ITERATIONS AND  1 ARE EQUILIBRIUM ITERATIONS.

 TIME INCREMENT COMPLETED  1.000E-03,  FRACTION OF STEP COMPLETED  1.200E-02
 STEP TIME COMPLETED       6.000E-03,  TOTAL TIME COMPLETED        6.000E-03


  INCREMENT     7 STARTS. ATTEMPT NUMBER  1, TIME INCREMENT  1.000E-03

  NUMBER OF EQUATIONS =       81     NUMBER OF FLOATING PT. OPERATIONS =  2.70E+04

     CHECK POINT   START OF SOLVER    

     CHECK POINT  END OF SOLVER       

       ELAPSED USER TIME (SEC)      =   0.0000    
       ELAPSED SYSTEM TIME (SEC)    =   0.0000    
       ELAPSED TOTAL CPU TIME (SEC) =   0.0000    
       ELAPSED WALLCLOCK TIME (SEC) =          0

               CONVERGENCE CHECKS FOR EQUILIBRIUM ITERATION     1


 AVERAGE FORCE                       142.       TIME AVG. FORCE        125.    
 LARGEST RESIDUAL FORCE            -7.784E-06   AT NODE          3   DOF  1
   INSTANCE:                                                                                 
 LARGEST INCREMENT OF DISP.         5.989E-04   AT NODE          5   DOF  2
   INSTANCE: {assembly node}                                                                 
 LARGEST CORRECTION TO DISP.        9.998E-05   AT NODE          5   DOF  2
   INSTANCE: {assembly node}                                                                 
 ESTIMATE OF DISP.    CORRECTION    2.134E-13
 FORCE     EQUILIB. ACCEPTED BASED ON SMALL RESIDUAL AND ESTIMATED CORRECTION

 AVERAGE MOMENT                      1.89       TIME AVG. MOMENT       1.65    
 LARGEST RESIDUAL MOMENT           -4.340E-08   AT NODE          1   DOF  6
   INSTANCE:                                                                                 
 LARGEST INCREMENT OF ROTATION     -8.448E-04   AT NODE          2   DOF  6
   INSTANCE: {assembly node}                                                                 
 LARGEST CORRECTION TO ROTATION    -1.405E-04   AT NODE          2   DOF  6
   INSTANCE: {assembly node}                                                                 
 ESTIMATE OF ROTATION CORRECTION   -2.170E-11
 MOMENT    EQUILIB. ACCEPTED BASED ON SMALL RESIDUAL AND ESTIMATED CORRECTION

 ITERATION SUMMARY FOR THE INCREMENT:   1 TOTAL ITERATIONS, OF WHICH
   0 ARE SEVERE DISCONTINUITY ITERATIONS AND  1 ARE EQUILIBRIUM ITERATIONS.

 TIME INCREMENT COMPLETED  1.000E-03,  FRACTION OF STEP COMPLETED  1.400E-02
 STEP TIME COMPLETED       7.000E-03,  TOTAL TIME COMPLETED        7.000E-03


  INCREMENT     8 STARTS. ATTEMPT NUMBER  1, TIME INCREMENT  1.000E-03

  NUMBER OF EQUATIONS =       81     NUMBER OF FLOATING PT. OPERATIONS =  2.70E+04

     CHECK POINT   START OF SOLVER    

     CHECK POINT  END OF SOLVER       

       ELAPSED USER TIME (SEC)      =   0.0000    
       ELAPSED SYSTEM TIME (SEC)    =   0.0000    
       ELAPSED TOTAL CPU TIME (SEC) =   0.0000    
       ELAPSED WALLCLOCK TIME (SEC) =          0

               CONVERGENCE CHECKS FOR EQUILIBRIUM ITERATION     1


 AVERAGE FORCE                       142.       TIME AVG. FORCE        128.    
 LARGEST RESIDUAL FORCE            -5.515E-06   AT NODE          1   DOF  2
   INSTANCE:                                                                                 
 LARGEST INCREMENT OF DISP.         6.990E-04   AT NODE          5   DOF  2
   INSTANCE: {assembly node}                                                                 
 LARGEST CORRECTION TO DISP.        1.001E-04   AT NODE          5   DOF  2
   INSTANCE: {assembly node}                                                                 
 ESTIMATE OF DISP.    CORRECTION    1.513E-13
 FORCE     EQUILIB. ACCEPTED BASED ON SMALL RESIDUAL AND ESTIMATED CORRECTION

 AVERAGE MOMENT                      1.89       TIME AVG. MOMENT       1.68    
 LARGEST RESIDUAL MOMENT           -6.182E-08   AT NODE          1   DOF  6
   INSTANCE:                                                                                 
 LARGEST INCREMENT OF ROTATION     -9.850E-04   AT NODE          1   DOF  6
   INSTANCE: {assembly node}                                                                 
 LARGEST CORRECTION TO ROTATION    -1.403E-04   AT NODE          1   DOF  6
   INSTANCE: {assembly node}                                                                 
 ESTIMATE OF ROTATION CORRECTION   -3.091E-11
 MOMENT    EQUILIB. ACCEPTED BASED ON SMALL RESIDUAL AND ESTIMATED CORRECTION

 ITERATION SUMMARY FOR THE INCREMENT:   1 TOTAL ITERATIONS, OF WHICH
   0 ARE SEVERE DISCONTINUITY ITERATIONS AND  1 ARE EQUILIBRIUM ITERATIONS.

 TIME INCREMENT COMPLETED  1.000E-03,  FRACTION OF STEP COMPLETED  1.600E-02
 STEP TIME COMPLETED       8.000E-03,  TOTAL TIME COMPLETED        8.000E-03


  INCREMENT     9 STARTS. ATTEMPT NUMBER  1, TIME INCREMENT  1.000E-03

  NUMBER OF EQUATIONS =       81     NUMBER OF FLOATING PT. OPERATIONS =  2.70E+04

     CHECK POINT   START OF SOLVER    

     CHECK POINT  END OF SOLVER       

       ELAPSED USER TIME (SEC)      =   0.0000    
       ELAPSED SYSTEM TIME (SEC)    =   0.0000    
       ELAPSED TOTAL CPU TIME (SEC) =   0.0000    
       ELAPSED WALLCLOCK TIME (SEC) =          0

               CONVERGENCE CHECKS FOR EQUILIBRIUM ITERATION     1


 AVERAGE FORCE                       142.       TIME AVG. FORCE        129.    
 LARGEST RESIDUAL FORCE            -6.395E-06   AT NODE          3   DOF  1
   INSTANCE:                                                                                 
 LARGEST INCREMENT OF DISP.         7.992E-04   AT NODE          5   DOF  2
   INSTANCE: {assembly node}                                                                 
 LARGEST CORRECTION TO DISP.        1.002E-04   AT NODE          5   DOF  2
   INSTANCE: {assembly node}                                                                 
 ESTIMATE OF DISP.    CORRECTION    1.757E-13
 FORCE     EQUILIB. ACCEPTED BASED ON SMALL RESIDUAL AND ESTIMATED CORRECTION

 AVERAGE MOMENT                      1.89       TIME AVG. MOMENT       1.71    
 LARGEST RESIDUAL MOMENT           -8.356E-08   AT NODE          1   DOF  6
   INSTANCE:                                                                                 
 LARGEST INCREMENT OF ROTATION     -1.125E-03   AT NODE          2   DOF  6
   INSTANCE: {assembly node}                                                                 
 LARGEST CORRECTION TO ROTATION    -1.400E-04   AT NODE          2   DOF  6
   INSTANCE: {assembly node}                                                                 
 ESTIMATE OF ROTATION CORRECTION   -4.177E-11
 MOMENT    EQUILIB. ACCEPTED BASED ON SMALL RESIDUAL AND ESTIMATED CORRECTION

 ITERATION SUMMARY FOR THE INCREMENT:   1 TOTAL ITERATIONS, OF WHICH
   0 ARE SEVERE DISCONTINUITY ITERATIONS AND  1 ARE EQUILIBRIUM ITERATIONS.

 TIME INCREMENT COMPLETED  1.000E-03,  FRACTION OF STEP COMPLETED  1.800E-02
 STEP TIME COMPLETED       9.000E-03,  TOTAL TIME COMPLETED        9.000E-03


  INCREMENT    10 STARTS. ATTEMPT NUMBER  1, TIME INCREMENT  1.000E-03

  NUMBER OF EQUATIONS =       81     NUMBER OF FLOATING PT. OPERATIONS =  2.70E+04

     CHECK POINT   START OF SOLVER    

     CHECK POINT  END OF SOLVER       

       ELAPSED USER TIME (SEC)      =   0.0000    
       ELAPSED SYSTEM TIME (SEC)    =   0.0000    
       ELAPSED TOTAL CPU TIME (SEC) =   0.0000    
       ELAPSED WALLCLOCK TIME (SEC) =          0

               CONVERGENCE CHECKS FOR EQUILIBRIUM ITERATION     1


 AVERAGE FORCE                       142.       TIME AVG. FORCE        130.    
 LARGEST RESIDUAL FORCE            -4.593E-06   AT NODE          1   DOF  2
   INSTANCE:                                                                                 
 LARGEST INCREMENT OF DISP.         8.995E-04   AT NODE          6   DOF  2
   INSTANCE: {assembly node}                                                                 
 LARGEST CORRECTION TO DISP.        1.003E-04   AT NODE          6   DOF  2
   INSTANCE: {assembly node}                                                                 
 ESTIMATE OF DISP.    CORRECTION    1.263E-13
 FORCE     EQUILIB. ACCEPTED BASED ON SMALL RESIDUAL AND ESTIMATED CORRECTION

 AVERAGE MOMENT                      1.88       TIME AVG. MOMENT       1.72    
 LARGEST RESIDUAL MOMENT           -1.084E-07   AT NODE          1   DOF  6
   INSTANCE:                                                                                 
 LARGEST INCREMENT OF ROTATION     -1.265E-03   AT NODE          2   DOF  6
   INSTANCE: {assembly node}                                                                 
 LARGEST CORRECTION TO ROTATION    -1.398E-04   AT NODE          5   DOF  6
   INSTANCE: {assembly node}                                                                 
 ESTIMATE OF ROTATION CORRECTION   -5.421E-11
 MOMENT    EQUILIB. ACCEPTED BASED ON SMALL RESIDUAL AND ESTIMATED CORRECTION

 ITERATION SUMMARY FOR THE INCREMENT:   1 TOTAL ITERATIONS, OF WHICH
   0 ARE SEVERE DISCONTINUITY ITERATIONS AND  1 ARE EQUILIBRIUM ITERATIONS.

 TIME INCREMENT COMPLETED  1.000E-03,  FRACTION OF STEP COMPLETED  2.000E-02
 STEP TIME COMPLETED       1.000E-02,  TOTAL TIME COMPLETED        1.000E-02


  INCREMENT    11 STARTS. ATTEMPT NUMBER  1, TIME INCREMENT  1.000E-03

  NUMBER OF EQUATIONS =       81     NUMBER OF FLOATING PT. OPERATIONS =  2.70E+04

     CHECK POINT   START OF SOLVER    

     CHECK POINT  END OF SOLVER       

       ELAPSED USER TIME (SEC)      =  1.00000E-02
       ELAPSED SYSTEM TIME (SEC)    =   0.0000    
       ELAPSED TOTAL CPU TIME (SEC) =  1.00000E-02
       ELAPSED WALLCLOCK TIME (SEC) =          0

               CONVERGENCE CHECKS FOR EQUILIBRIUM ITERATION     1


 AVERAGE FORCE                       141.       TIME AVG. FORCE        131.    
 LARGEST RESIDUAL FORCE            -5.254E-06   AT NODE          3   DOF  1
   INSTANCE:                                                                                 
 LARGEST INCREMENT OF DISP.         1.000E-03   AT NODE          5   DOF  2
   INSTANCE: {assembly node}                                                                 
 LARGEST CORRECTION TO DISP.        1.005E-04   AT NODE          6   DOF  2
   INSTANCE: {assembly node}                                                                 
 ESTIMATE OF DISP.    CORRECTION    1.446E-13
 FORCE     EQUILIB. ACCEPTED BASED ON SMALL RESIDUAL AND ESTIMATED CORRECTION

 AVERAGE MOMENT                      1.88       TIME AVG. MOMENT       1.74    
 LARGEST RESIDUAL MOMENT           -1.365E-07   AT NODE          1   DOF  6
   INSTANCE:                                                                                 
 LARGEST INCREMENT OF ROTATION     -1.404E-03   AT NODE          5   DOF  6
   INSTANCE: {assembly node}                                                                 
 LARGEST CORRECTION TO ROTATION    -1.395E-04   AT NODE          1   DOF  6
   INSTANCE: {assembly node}                                                                 
 ESTIMATE OF ROTATION CORRECTION   -6.822E-11
 MOMENT    EQUILIB. ACCEPTED BASED ON SMALL RESIDUAL AND ESTIMATED CORRECTION

 ITERATION SUMMARY FOR THE INCREMENT:   1 TOTAL ITERATIONS, OF WHICH
   0 ARE SEVERE DISCONTINUITY ITERATIONS AND  1 ARE EQUILIBRIUM ITERATIONS.

 TIME INCREMENT COMPLETED  1.000E-03,  FRACTION OF STEP COMPLETED  2.200E-02
 STEP TIME COMPLETED       1.100E-02,  TOTAL TIME COMPLETED        1.100E-02


  INCREMENT    12 STARTS. ATTEMPT NUMBER  1, TIME INCREMENT  1.000E-03

  NUMBER OF EQUATIONS =       81     NUMBER OF FLOATING PT. OPERATIONS =  2.70E+04

     CHECK POINT   START OF SOLVER    

     CHECK POINT  END OF SOLVER       

       ELAPSED USER TIME (SEC)      =  1.00000E-02
       ELAPSED SYSTEM TIME (SEC)    =   0.0000    
       ELAPSED TOTAL CPU TIME (SEC) =  1.00000E-02
       ELAPSED WALLCLOCK TIME (SEC) =          0

               CONVERGENCE CHECKS FOR EQUILIBRIUM ITERATION     1


 AVERAGE FORCE                       141.       TIME AVG. FORCE        132.    
 LARGEST RESIDUAL FORCE             4.202E-06   AT NODE          6   DOF  1
   INSTANCE:                                                                                 
 LARGEST INCREMENT OF DISP.         1.101E-03   AT NODE          5   DOF  2
   INSTANCE: {assembly node}                                                                 
 LARGEST CORRECTION TO DISP.        1.007E-04   AT NODE          5   DOF  2
   INSTANCE: {assembly node}                                                                 
 ESTIMATE OF DISP.    CORRECTION   -1.158E-13
 FORCE     EQUILIB. ACCEPTED BASED ON SMALL RESIDUAL AND ESTIMATED CORRECTION

 AVERAGE MOMENT                      1.87       TIME AVG. MOMENT       1.75    
 LARGEST RESIDUAL MOMENT           -1.675E-07   AT NODE          1   DOF  6
   INSTANCE:                                                                                 
 LARGEST INCREMENT OF ROTATION     -1.543E-03   AT NODE          1   DOF  6
   INSTANCE: {assembly node}                                                                 
 LARGEST CORRECTION TO ROTATION    -1.391E-04   AT NODE          1   DOF  6
   INSTANCE: {assembly node}                                                                 
 ESTIMATE OF ROTATION CORRECTION   -8.375E-11
 MOMENT    EQUILIB. ACCEPTED BASED ON SMALL RESIDUAL AND ESTIMATED CORRECTION

 ITERATION SUMMARY FOR THE INCREMENT:   1 TOTAL ITERATIONS, OF WHICH
   0 ARE SEVERE DISCONTINUITY ITERATIONS AND  1 ARE EQUILIBRIUM ITERATIONS.

 TIME INCREMENT COMPLETED  1.000E-03,  FRACTION OF STEP COMPLETED  2.400E-02
 STEP TIME COMPLETED       1.200E-02,  TOTAL TIME COMPLETED        1.200E-02


  INCREMENT    13 STARTS. ATTEMPT NUMBER  1, TIME INCREMENT  1.000E-03

  NUMBER OF EQUATIONS =       81     NUMBER OF FLOATING PT. OPERATIONS =  2.70E+04

     CHECK POINT   START OF SOLVER    

     CHECK POINT  END OF SOLVER       

       ELAPSED USER TIME (SEC)      =   0.0000    
       ELAPSED SYSTEM TIME (SEC)    =   0.0000    
       ELAPSED TOTAL CPU TIME (SEC) =   0.0000    
       ELAPSED WALLCLOCK TIME (SEC) =          0

               CONVERGENCE CHECKS FOR EQUILIBRIUM ITERATION     1


 AVERAGE FORCE                       141.       TIME AVG. FORCE        133.    
 LARGEST RESIDUAL FORCE            -4.446E-06   AT NODE          3   DOF  1
   INSTANCE:                                                                                 
 LARGEST INCREMENT OF DISP.         1.202E-03   AT NODE          5   DOF  2
   INSTANCE: {assembly node}                                                                 
 LARGEST CORRECTION TO DISP.        1.009E-04   AT NODE          5   DOF  2
   INSTANCE: {assembly node}                                                                 
 ESTIMATE OF DISP.    CORRECTION    1.227E-13
 FORCE     EQUILIB. ACCEPTED BASED ON SMALL RESIDUAL AND ESTIMATED CORRECTION

 AVERAGE MOMENT                      1.87       TIME AVG. MOMENT       1.76    
 LARGEST RESIDUAL MOMENT           -2.016E-07   AT NODE          1   DOF  6
   INSTANCE:                                                                                 
 LARGEST INCREMENT OF ROTATION     -1.682E-03   AT NODE          5   DOF  6
   INSTANCE: {assembly node}                                                                 
 LARGEST CORRECTION TO ROTATION    -1.388E-04   AT NODE          5   DOF  6
   INSTANCE: {assembly node}                                                                 
 ESTIMATE OF ROTATION CORRECTION   -1.008E-10
 MOMENT    EQUILIB. ACCEPTED BASED ON SMALL RESIDUAL AND ESTIMATED CORRECTION

 ITERATION SUMMARY FOR THE INCREMENT:   1 TOTAL ITERATIONS, OF WHICH
   0 ARE SEVERE DISCONTINUITY ITERATIONS AND  1 ARE EQUILIBRIUM ITERATIONS.

 TIME INCREMENT COMPLETED  1.000E-03,  FRACTION OF STEP COMPLETED  2.600E-02
 STEP TIME COMPLETED       1.300E-02,  TOTAL TIME COMPLETED        1.300E-02


  INCREMENT    14 STARTS. ATTEMPT NUMBER  1, TIME INCREMENT  1.000E-03

  NUMBER OF EQUATIONS =       81     NUMBER OF FLOATING PT. OPERATIONS =  2.70E+04

     CHECK POINT   START OF SOLVER    

     CHECK POINT  END OF SOLVER       

       ELAPSED USER TIME (SEC)      =  1.00000E-02
       ELAPSED SYSTEM TIME (SEC)    =   0.0000    
       ELAPSED TOTAL CPU TIME (SEC) =  1.00000E-02
       ELAPSED WALLCLOCK TIME (SEC) =          1

               CONVERGENCE CHECKS FOR EQUILIBRIUM ITERATION     1


 AVERAGE FORCE                       141.       TIME AVG. FORCE        133.    
 LARGEST RESIDUAL FORCE             4.211E-06   AT NODE          6   DOF  1
   INSTANCE:                                                                                 
 LARGEST INCREMENT OF DISP.         1.303E-03   AT NODE          6   DOF  2
   INSTANCE: {assembly node}                                                                 
 LARGEST CORRECTION TO DISP.        1.011E-04   AT NODE          6   DOF  2
   INSTANCE: {assembly node}                                                                 
 ESTIMATE OF DISP.    CORRECTION   -1.164E-13
 FORCE     EQUILIB. ACCEPTED BASED ON SMALL RESIDUAL AND ESTIMATED CORRECTION

 AVERAGE MOMENT                      1.86       TIME AVG. MOMENT       1.77    
 LARGEST RESIDUAL MOMENT           -2.385E-07   AT NODE          1   DOF  6
   INSTANCE:                                                                                 
 LARGEST INCREMENT OF ROTATION     -1.821E-03   AT NODE          1   DOF  6
   INSTANCE: {assembly node}                                                                 
 LARGEST CORRECTION TO ROTATION    -1.384E-04   AT NODE          1   DOF  6
   INSTANCE: {assembly node}                                                                 
 ESTIMATE OF ROTATION CORRECTION   -1.193E-10
 MOMENT    EQUILIB. ACCEPTED BASED ON SMALL RESIDUAL AND ESTIMATED CORRECTION

 ITERATION SUMMARY FOR THE INCREMENT:   1 TOTAL ITERATIONS, OF WHICH
   0 ARE SEVERE DISCONTINUITY ITERATIONS AND  1 ARE EQUILIBRIUM ITERATIONS.

 TIME INCREMENT COMPLETED  1.000E-03,  FRACTION OF STEP COMPLETED  2.800E-02
 STEP TIME COMPLETED       1.400E-02,  TOTAL TIME COMPLETED        1.400E-02


  INCREMENT    15 STARTS. ATTEMPT NUMBER  1, TIME INCREMENT  1.000E-03

  NUMBER OF EQUATIONS =       81     NUMBER OF FLOATING PT. OPERATIONS =  2.70E+04

     CHECK POINT   START OF SOLVER    

     CHECK POINT  END OF SOLVER       

       ELAPSED USER TIME (SEC)      =   0.0000    
       ELAPSED SYSTEM TIME (SEC)    =   0.0000    
       ELAPSED TOTAL CPU TIME (SEC) =   0.0000    
       ELAPSED WALLCLOCK TIME (SEC) =          0

               CONVERGENCE CHECKS FOR EQUILIBRIUM ITERATION     1


 AVERAGE FORCE                       141.       TIME AVG. FORCE        134.    
 LARGEST RESIDUAL FORCE             4.218E-06   AT NODE          6   DOF  1
   INSTANCE:                                                                                 
 LARGEST INCREMENT OF DISP.         1.404E-03   AT NODE          6   DOF  2
   INSTANCE: {assembly node}                                                                 
 LARGEST CORRECTION TO DISP.        1.013E-04   AT NODE          5   DOF  2
   INSTANCE: {assembly node}                                                                 
 ESTIMATE OF DISP.    CORRECTION   -1.168E-13
 FORCE     EQUILIB. ACCEPTED BASED ON SMALL RESIDUAL AND ESTIMATED CORRECTION

 AVERAGE MOMENT                      1.86       TIME AVG. MOMENT       1.77    
 LARGEST RESIDUAL MOMENT           -2.783E-07   AT NODE          1   DOF  6
   INSTANCE:                                                                                 
 LARGEST INCREMENT OF ROTATION     -1.959E-03   AT NODE          5   DOF  6
   INSTANCE: {assembly node}                                                                 
 LARGEST CORRECTION TO ROTATION    -1.379E-04   AT NODE          5   DOF  6
   INSTANCE: {assembly node}                                                                 
 ESTIMATE OF ROTATION CORRECTION   -1.391E-10
 MOMENT    EQUILIB. ACCEPTED BASED ON SMALL RESIDUAL AND ESTIMATED CORRECTION

 ITERATION SUMMARY FOR THE INCREMENT:   1 TOTAL ITERATIONS, OF WHICH
   0 ARE SEVERE DISCONTINUITY ITERATIONS AND  1 ARE EQUILIBRIUM ITERATIONS.

 TIME INCREMENT COMPLETED  1.000E-03,  FRACTION OF STEP COMPLETED  3.000E-02
 STEP TIME COMPLETED       1.500E-02,  TOTAL TIME COMPLETED        1.500E-02


  INCREMENT    16 STARTS. ATTEMPT NUMBER  1, TIME INCREMENT  1.000E-03

  NUMBER OF EQUATIONS =       81     NUMBER OF FLOATING PT. OPERATIONS =  2.70E+04

     CHECK POINT   START OF SOLVER    

     CHECK POINT  END OF SOLVER       

       ELAPSED USER TIME (SEC)      =  1.00000E-02
       ELAPSED SYSTEM TIME (SEC)    =   0.0000    
       ELAPSED TOTAL CPU TIME (SEC) =  1.00000E-02
       ELAPSED WALLCLOCK TIME (SEC) =          0

               CONVERGENCE CHECKS FOR EQUILIBRIUM ITERATION     1


 AVERAGE FORCE                       141.       TIME AVG. FORCE        134.    
 LARGEST RESIDUAL FORCE             4.220E-06   AT NODE          6   DOF  1
   INSTANCE:                                                                                 
 LARGEST INCREMENT OF DISP.         1.505E-03   AT NODE          6   DOF  2
   INSTANCE: {assembly node}                                                                 
 LARGEST CORRECTION TO DISP.        1.015E-04   AT NODE          6   DOF  2
   INSTANCE: {assembly node}                                                                 
 ESTIMATE OF DISP.    CORRECTION   -1.170E-13
 FORCE     EQUILIB. ACCEPTED BASED ON SMALL RESIDUAL AND ESTIMATED CORRECTION

 AVERAGE MOMENT                      1.85       TIME AVG. MOMENT       1.78    
 LARGEST RESIDUAL MOMENT           -3.208E-07   AT NODE          1   DOF  6
   INSTANCE:                                                                                 
 LARGEST INCREMENT OF ROTATION     -2.096E-03   AT NODE          1   DOF  6
   INSTANCE: {assembly node}                                                                 
 LARGEST CORRECTION TO ROTATION    -1.375E-04   AT NODE          2   DOF  6
   INSTANCE: {assembly node}                                                                 
 ESTIMATE OF ROTATION CORRECTION   -1.604E-10
 MOMENT    EQUILIB. ACCEPTED BASED ON SMALL RESIDUAL AND ESTIMATED CORRECTION

 ITERATION SUMMARY FOR THE INCREMENT:   1 TOTAL ITERATIONS, OF WHICH
   0 ARE SEVERE DISCONTINUITY ITERATIONS AND  1 ARE EQUILIBRIUM ITERATIONS.

 TIME INCREMENT COMPLETED  1.000E-03,  FRACTION OF STEP COMPLETED  3.200E-02
 STEP TIME COMPLETED       1.600E-02,  TOTAL TIME COMPLETED        1.600E-02


  INCREMENT    17 STARTS. ATTEMPT NUMBER  1, TIME INCREMENT  1.000E-03

  NUMBER OF EQUATIONS =       81     NUMBER OF FLOATING PT. OPERATIONS =  2.70E+04

     CHECK POINT   START OF SOLVER    

     CHECK POINT  END OF SOLVER       

       ELAPSED USER TIME (SEC)      =   0.0000    
       ELAPSED SYSTEM TIME (SEC)    =   0.0000    
       ELAPSED TOTAL CPU TIME (SEC) =   0.0000    
       ELAPSED WALLCLOCK TIME (SEC) =          0

               CONVERGENCE CHECKS FOR EQUILIBRIUM ITERATION     1


 AVERAGE FORCE                       140.       TIME AVG. FORCE        135.    
 LARGEST RESIDUAL FORCE             4.225E-06   AT NODE          6   DOF  1
   INSTANCE:                                                                                 
 LARGEST INCREMENT OF DISP.         1.607E-03   AT NODE          5   DOF  2
   INSTANCE: {assembly node}                                                                 
 LARGEST CORRECTION TO DISP.        1.017E-04   AT NODE          5   DOF  2
   INSTANCE: {assembly node}                                                                 
 ESTIMATE OF DISP.    CORRECTION   -1.174E-13
 FORCE     EQUILIB. ACCEPTED BASED ON SMALL RESIDUAL AND ESTIMATED CORRECTION

 AVERAGE MOMENT                      1.85       TIME AVG. MOMENT       1.78    
 LARGEST RESIDUAL MOMENT           -3.659E-07   AT NODE          1   DOF  6
   INSTANCE:                                                                                 
 LARGEST INCREMENT OF ROTATION     -2.233E-03   AT NODE          5   DOF  6
   INSTANCE: {assembly node}                                                                 
 LARGEST CORRECTION TO ROTATION    -1.370E-04   AT NODE          5   DOF  6
   INSTANCE: {assembly node}                                                                 
 ESTIMATE OF ROTATION CORRECTION   -1.829E-10
 MOMENT    EQUILIB. ACCEPTED BASED ON SMALL RESIDUAL AND ESTIMATED CORRECTION

 ITERATION SUMMARY FOR THE INCREMENT:   1 TOTAL ITERATIONS, OF WHICH
   0 ARE SEVERE DISCONTINUITY ITERATIONS AND  1 ARE EQUILIBRIUM ITERATIONS.

 TIME INCREMENT COMPLETED  1.000E-03,  FRACTION OF STEP COMPLETED  3.400E-02
 STEP TIME COMPLETED       1.700E-02,  TOTAL TIME COMPLETED        1.700E-02


  INCREMENT    18 STARTS. ATTEMPT NUMBER  1, TIME INCREMENT  1.000E-03

  NUMBER OF EQUATIONS =       81     NUMBER OF FLOATING PT. OPERATIONS =  2.70E+04

     CHECK POINT   START OF SOLVER    

     CHECK POINT  END OF SOLVER       

       ELAPSED USER TIME (SEC)      =   0.0000    
       ELAPSED SYSTEM TIME (SEC)    =   0.0000    
       ELAPSED TOTAL CPU TIME (SEC) =   0.0000    
       ELAPSED WALLCLOCK TIME (SEC) =          0

               CONVERGENCE CHECKS FOR EQUILIBRIUM ITERATION     1


 AVERAGE FORCE                       140.       TIME AVG. FORCE        135.    
 LARGEST RESIDUAL FORCE             4.228E-06   AT NODE          6   DOF  1
   INSTANCE:                                                                                 
 LARGEST INCREMENT OF DISP.         1.709E-03   AT NODE          5   DOF  2
   INSTANCE: {assembly node}                                                                 
 LARGEST CORRECTION TO DISP.        1.020E-04   AT NODE          6   DOF  2
   INSTANCE: {assembly node}                                                                 
 ESTIMATE OF DISP.    CORRECTION   -1.177E-13
 FORCE     EQUILIB. ACCEPTED BASED ON SMALL RESIDUAL AND ESTIMATED CORRECTION

 AVERAGE MOMENT                      1.84       TIME AVG. MOMENT       1.78    
 LARGEST RESIDUAL MOMENT           -4.134E-07   AT NODE          1   DOF  6
   INSTANCE:                                                                                 
 LARGEST INCREMENT OF ROTATION     -2.369E-03   AT NODE          1   DOF  6
   INSTANCE: {assembly node}                                                                 
 LARGEST CORRECTION TO ROTATION    -1.365E-04   AT NODE          1   DOF  6
   INSTANCE: {assembly node}                                                                 
 ESTIMATE OF ROTATION CORRECTION   -2.067E-10
 MOMENT    EQUILIB. ACCEPTED BASED ON SMALL RESIDUAL AND ESTIMATED CORRECTION

 ITERATION SUMMARY FOR THE INCREMENT:   1 TOTAL ITERATIONS, OF WHICH
   0 ARE SEVERE DISCONTINUITY ITERATIONS AND  1 ARE EQUILIBRIUM ITERATIONS.

 TIME INCREMENT COMPLETED  1.000E-03,  FRACTION OF STEP COMPLETED  3.600E-02
 STEP TIME COMPLETED       1.800E-02,  TOTAL TIME COMPLETED        1.800E-02


  INCREMENT    19 STARTS. ATTEMPT NUMBER  1, TIME INCREMENT  1.000E-03

  NUMBER OF EQUATIONS =       81     NUMBER OF FLOATING PT. OPERATIONS =  2.70E+04

     CHECK POINT   START OF SOLVER    

     CHECK POINT  END OF SOLVER       

       ELAPSED USER TIME (SEC)      =   0.0000    
       ELAPSED SYSTEM TIME (SEC)    =   0.0000    
       ELAPSED TOTAL CPU TIME (SEC) =   0.0000    
       ELAPSED WALLCLOCK TIME (SEC) =          0

               CONVERGENCE CHECKS FOR EQUILIBRIUM ITERATION     1


 AVERAGE FORCE                       140.       TIME AVG. FORCE        135.    
 LARGEST RESIDUAL FORCE             4.233E-06   AT NODE          6   DOF  1
   INSTANCE:                                                                                 
 LARGEST INCREMENT OF DISP.         1.811E-03   AT NODE          5   DOF  2
   INSTANCE: {assembly node}                                                                 
 LARGEST CORRECTION TO DISP.        1.022E-04   AT NODE          6   DOF  2
   INSTANCE: {assembly node}                                                                 
 ESTIMATE OF DISP.    CORRECTION   -1.181E-13
 FORCE     EQUILIB. ACCEPTED BASED ON SMALL RESIDUAL AND ESTIMATED CORRECTION

 AVERAGE MOMENT                      1.83       TIME AVG. MOMENT       1.79    
 LARGEST RESIDUAL MOMENT           -4.634E-07   AT NODE          1   DOF  6
   INSTANCE:                                                                                 
 LARGEST INCREMENT OF ROTATION     -2.505E-03   AT NODE          5   DOF  6
   INSTANCE: {assembly node}                                                                 
 LARGEST CORRECTION TO ROTATION    -1.359E-04   AT NODE          5   DOF  6
   INSTANCE: {assembly node}                                                                 
 ESTIMATE OF ROTATION CORRECTION   -2.317E-10
 MOMENT    EQUILIB. ACCEPTED BASED ON SMALL RESIDUAL AND ESTIMATED CORRECTION

 ITERATION SUMMARY FOR THE INCREMENT:   1 TOTAL ITERATIONS, OF WHICH
   0 ARE SEVERE DISCONTINUITY ITERATIONS AND  1 ARE EQUILIBRIUM ITERATIONS.

 TIME INCREMENT COMPLETED  1.000E-03,  FRACTION OF STEP COMPLETED  3.800E-02
 STEP TIME COMPLETED       1.900E-02,  TOTAL TIME COMPLETED        1.900E-02


  INCREMENT    20 STARTS. ATTEMPT NUMBER  1, TIME INCREMENT  1.000E-03

  NUMBER OF EQUATIONS =       81     NUMBER OF FLOATING PT. OPERATIONS =  2.70E+04

     CHECK POINT   START OF SOLVER    

     CHECK POINT  END OF SOLVER       

       ELAPSED USER TIME (SEC)      =  1.00000E-02
       ELAPSED SYSTEM TIME (SEC)    =   0.0000    
       ELAPSED TOTAL CPU TIME (SEC) =  1.00000E-02
       ELAPSED WALLCLOCK TIME (SEC) =          0

               CONVERGENCE CHECKS FOR EQUILIBRIUM ITERATION     1


 AVERAGE FORCE                       140.       TIME AVG. FORCE        136.    
 LARGEST RESIDUAL FORCE             4.237E-06   AT NODE          6   DOF  1
   INSTANCE:                                                                                 
 LARGEST INCREMENT OF DISP.         1.914E-03   AT NODE          5   DOF  2
   INSTANCE: {assembly node}                                                                 
 LARGEST CORRECTION TO DISP.        1.025E-04   AT NODE          5   DOF  2
   INSTANCE: {assembly node}                                                                 
 ESTIMATE OF DISP.    CORRECTION   -1.184E-13
 FORCE     EQUILIB. ACCEPTED BASED ON SMALL RESIDUAL AND ESTIMATED CORRECTION

 AVERAGE MOMENT                      1.83       TIME AVG. MOMENT       1.79    
 LARGEST RESIDUAL MOMENT           -5.157E-07   AT NODE          1   DOF  6
   INSTANCE:                                                                                 
 LARGEST INCREMENT OF ROTATION     -2.641E-03   AT NODE          1   DOF  6
   INSTANCE: {assembly node}                                                                 
 LARGEST CORRECTION TO ROTATION    -1.353E-04   AT NODE          2   DOF  6
   INSTANCE: {assembly node}                                                                 
 ESTIMATE OF ROTATION CORRECTION   -2.578E-10
 MOMENT    EQUILIB. ACCEPTED BASED ON SMALL RESIDUAL AND ESTIMATED CORRECTION

 ITERATION SUMMARY FOR THE INCREMENT:   1 TOTAL ITERATIONS, OF WHICH
   0 ARE SEVERE DISCONTINUITY ITERATIONS AND  1 ARE EQUILIBRIUM ITERATIONS.

 TIME INCREMENT COMPLETED  1.000E-03,  FRACTION OF STEP COMPLETED  4.000E-02
 STEP TIME COMPLETED       2.000E-02,  TOTAL TIME COMPLETED        2.000E-02


  INCREMENT    21 STARTS. ATTEMPT NUMBER  1, TIME INCREMENT  1.000E-03

  NUMBER OF EQUATIONS =       81     NUMBER OF FLOATING PT. OPERATIONS =  2.70E+04

     CHECK POINT   START OF SOLVER    

     CHECK POINT  END OF SOLVER       

       ELAPSED USER TIME (SEC)      =   0.0000    
       ELAPSED SYSTEM TIME (SEC)    =   0.0000    
       ELAPSED TOTAL CPU TIME (SEC) =   0.0000    
       ELAPSED WALLCLOCK TIME (SEC) =          0

               CONVERGENCE CHECKS FOR EQUILIBRIUM ITERATION     1


 AVERAGE FORCE                       139.       TIME AVG. FORCE        136.    
 LARGEST RESIDUAL FORCE             4.245E-06   AT NODE          5   DOF  1
   INSTANCE:                                                                                 
 LARGEST INCREMENT OF DISP.         2.017E-03   AT NODE          5   DOF  2
   INSTANCE: {assembly node}                                                                 
 LARGEST CORRECTION TO DISP.        1.028E-04   AT NODE          6   DOF  2
   INSTANCE: {assembly node}                                                                 
 ESTIMATE OF DISP.    CORRECTION   -1.189E-13
 FORCE     EQUILIB. ACCEPTED BASED ON SMALL RESIDUAL AND ESTIMATED CORRECTION

 AVERAGE MOMENT                      1.82       TIME AVG. MOMENT       1.79    
 LARGEST RESIDUAL MOMENT           -5.701E-07   AT NODE          1   DOF  6
   INSTANCE:                                                                                 
 LARGEST INCREMENT OF ROTATION     -2.775E-03   AT NODE          5   DOF  6
   INSTANCE: {assembly node}                                                                 
 LARGEST CORRECTION TO ROTATION    -1.347E-04   AT NODE          5   DOF  6
   INSTANCE: {assembly node}                                                                 
 ESTIMATE OF ROTATION CORRECTION   -2.850E-10
 MOMENT    EQUILIB. ACCEPTED BASED ON SMALL RESIDUAL AND ESTIMATED CORRECTION

 ITERATION SUMMARY FOR THE INCREMENT:   1 TOTAL ITERATIONS, OF WHICH
   0 ARE SEVERE DISCONTINUITY ITERATIONS AND  1 ARE EQUILIBRIUM ITERATIONS.

 TIME INCREMENT COMPLETED  1.000E-03,  FRACTION OF STEP COMPLETED  4.200E-02
 STEP TIME COMPLETED       2.100E-02,  TOTAL TIME COMPLETED        2.100E-02


  INCREMENT    22 STARTS. ATTEMPT NUMBER  1, TIME INCREMENT  1.000E-03

  NUMBER OF EQUATIONS =       81     NUMBER OF FLOATING PT. OPERATIONS =  2.70E+04

     CHECK POINT   START OF SOLVER    

     CHECK POINT  END OF SOLVER       

       ELAPSED USER TIME (SEC)      =  1.00000E-02
       ELAPSED SYSTEM TIME (SEC)    =   0.0000    
       ELAPSED TOTAL CPU TIME (SEC) =  1.00000E-02
       ELAPSED WALLCLOCK TIME (SEC) =          0

[...]
   INSTANCE:                                                                                 
 LARGEST INCREMENT OF ROTATION      1.080E-02   AT NODE          2   DOF  6
   INSTANCE: {assembly node}                                                                 
 LARGEST CORRECTION TO ROTATION     1.849E-04   AT NODE          2   DOF  6
   INSTANCE: {assembly node}                                                                 
 ESTIMATE OF ROTATION CORRECTION    6.022E-09
 MOMENT    EQUILIB. ACCEPTED BASED ON SMALL RESIDUAL AND ESTIMATED CORRECTION

 ITERATION SUMMARY FOR THE INCREMENT:   1 TOTAL ITERATIONS, OF WHICH
   0 ARE SEVERE DISCONTINUITY ITERATIONS AND  1 ARE EQUILIBRIUM ITERATIONS.

 TIME INCREMENT COMPLETED  1.000E-03,  FRACTION OF STEP COMPLETED  0.984    
 STEP TIME COMPLETED       0.492    ,  TOTAL TIME COMPLETED        0.492    


  INCREMENT   493 STARTS. ATTEMPT NUMBER  1, TIME INCREMENT  1.000E-03

  NUMBER OF EQUATIONS =       81     NUMBER OF FLOATING PT. OPERATIONS =  2.70E+04

     CHECK POINT   START OF SOLVER    

     CHECK POINT  END OF SOLVER       

       ELAPSED USER TIME (SEC)      =  1.00000E-02
       ELAPSED SYSTEM TIME (SEC)    =   0.0000    
       ELAPSED TOTAL CPU TIME (SEC) =  1.00000E-02
       ELAPSED WALLCLOCK TIME (SEC) =          0

               CONVERGENCE CHECKS FOR EQUILIBRIUM ITERATION     1


 AVERAGE FORCE                       260.       TIME AVG. FORCE        900.    
 LARGEST RESIDUAL FORCE            -1.896E-04   AT NODE          3   DOF  1
   INSTANCE:                                                                                 
 LARGEST INCREMENT OF DISP.         1.094E-02   AT NODE          7   DOF  2
   INSTANCE: {assembly node}                                                                 
 LARGEST CORRECTION TO DISP.        2.238E-04   AT NODE          7   DOF  2
   INSTANCE: {assembly node}                                                                 
 ESTIMATE OF DISP.    CORRECTION    1.416E-11
 FORCE     EQUILIB. ACCEPTED BASED ON SMALL RESIDUAL AND ESTIMATED CORRECTION

 AVERAGE MOMENT                      6.12       TIME AVG. MOMENT       10.0    
 LARGEST RESIDUAL MOMENT            1.275E-05   AT NODE          1   DOF  6
   INSTANCE:                                                                                 
 LARGEST INCREMENT OF ROTATION      1.098E-02   AT NODE          5   DOF  6
   INSTANCE: {assembly node}                                                                 
 LARGEST CORRECTION TO ROTATION     1.899E-04   AT NODE          5   DOF  6
   INSTANCE: {assembly node}                                                                 
 ESTIMATE OF ROTATION CORRECTION    6.392E-09
 MOMENT    EQUILIB. ACCEPTED BASED ON SMALL RESIDUAL AND ESTIMATED CORRECTION

 ITERATION SUMMARY FOR THE INCREMENT:   1 TOTAL ITERATIONS, OF WHICH
   0 ARE SEVERE DISCONTINUITY ITERATIONS AND  1 ARE EQUILIBRIUM ITERATIONS.

 TIME INCREMENT COMPLETED  1.000E-03,  FRACTION OF STEP COMPLETED  0.986    
 STEP TIME COMPLETED       0.493    ,  TOTAL TIME COMPLETED        0.493    


  INCREMENT   494 STARTS. ATTEMPT NUMBER  1, TIME INCREMENT  1.000E-03

  NUMBER OF EQUATIONS =       81     NUMBER OF FLOATING PT. OPERATIONS =  2.70E+04

     CHECK POINT   START OF SOLVER    

     CHECK POINT  END OF SOLVER       

       ELAPSED USER TIME (SEC)      =  1.00000E-02
       ELAPSED SYSTEM TIME (SEC)    =   0.0000    
       ELAPSED TOTAL CPU TIME (SEC) =  1.00000E-02
       ELAPSED WALLCLOCK TIME (SEC) =          0

               CONVERGENCE CHECKS FOR EQUILIBRIUM ITERATION     1


 AVERAGE FORCE                       267.       TIME AVG. FORCE        899.    
 LARGEST RESIDUAL FORCE            -2.162E-04   AT NODE          3   DOF  1
   INSTANCE:                                                                                 
 LARGEST INCREMENT OF DISP.         1.117E-02   AT NODE          7   DOF  2
   INSTANCE: {assembly node}                                                                 
 LARGEST CORRECTION TO DISP.        2.304E-04   AT NODE          7   DOF  2
   INSTANCE: {assembly node}                                                                 
 ESTIMATE OF DISP.    CORRECTION    1.683E-11
 FORCE     EQUILIB. ACCEPTED BASED ON SMALL RESIDUAL AND ESTIMATED CORRECTION

 AVERAGE MOMENT                      6.30       TIME AVG. MOMENT       10.0    
 LARGEST RESIDUAL MOMENT            1.355E-05   AT NODE          1   DOF  6
   INSTANCE:                                                                                 
 LARGEST INCREMENT OF ROTATION      1.118E-02   AT NODE          2   DOF  6
   INSTANCE: {assembly node}                                                                 
 LARGEST CORRECTION TO ROTATION     1.953E-04   AT NODE          1   DOF  6
   INSTANCE: {assembly node}                                                                 
 ESTIMATE OF ROTATION CORRECTION    6.794E-09
 MOMENT    EQUILIB. ACCEPTED BASED ON SMALL RESIDUAL AND ESTIMATED CORRECTION

 ITERATION SUMMARY FOR THE INCREMENT:   1 TOTAL ITERATIONS, OF WHICH
   0 ARE SEVERE DISCONTINUITY ITERATIONS AND  1 ARE EQUILIBRIUM ITERATIONS.

 TIME INCREMENT COMPLETED  1.000E-03,  FRACTION OF STEP COMPLETED  0.988    
 STEP TIME COMPLETED       0.494    ,  TOTAL TIME COMPLETED        0.494    


  INCREMENT   495 STARTS. ATTEMPT NUMBER  1, TIME INCREMENT  1.000E-03

  NUMBER OF EQUATIONS =       81     NUMBER OF FLOATING PT. OPERATIONS =  2.70E+04

     CHECK POINT   START OF SOLVER    

     CHECK POINT  END OF SOLVER       

       ELAPSED USER TIME (SEC)      =   0.0000    
       ELAPSED SYSTEM TIME (SEC)    =   0.0000    
       ELAPSED TOTAL CPU TIME (SEC) =   0.0000    
       ELAPSED WALLCLOCK TIME (SEC) =          0

               CONVERGENCE CHECKS FOR EQUILIBRIUM ITERATION     1


 AVERAGE FORCE                       275.       TIME AVG. FORCE        898.    
 LARGEST RESIDUAL FORCE            -2.473E-04   AT NODE          3   DOF  1
   INSTANCE:                                                                                 
 LARGEST INCREMENT OF DISP.         1.140E-02   AT NODE          7   DOF  2
   INSTANCE: {assembly node}                                                                 
 LARGEST CORRECTION TO DISP.        2.374E-04   AT NODE          7   DOF  2
   INSTANCE: {assembly node}                                                                 
 ESTIMATE OF DISP.    CORRECTION    2.012E-11
 FORCE     EQUILIB. ACCEPTED BASED ON SMALL RESIDUAL AND ESTIMATED CORRECTION

 AVERAGE MOMENT                      6.49       TIME AVG. MOMENT       10.0    
 LARGEST RESIDUAL MOMENT            1.442E-05   AT NODE          1   DOF  6
   INSTANCE:                                                                                 
 LARGEST INCREMENT OF ROTATION      1.138E-02   AT NODE          5   DOF  6
   INSTANCE: {assembly node}                                                                 
 LARGEST CORRECTION TO ROTATION     2.010E-04   AT NODE          5   DOF  6
   INSTANCE: {assembly node}                                                                 
 ESTIMATE OF ROTATION CORRECTION    7.231E-09
 MOMENT    EQUILIB. ACCEPTED BASED ON SMALL RESIDUAL AND ESTIMATED CORRECTION

 ITERATION SUMMARY FOR THE INCREMENT:   1 TOTAL ITERATIONS, OF WHICH
   0 ARE SEVERE DISCONTINUITY ITERATIONS AND  1 ARE EQUILIBRIUM ITERATIONS.

 TIME INCREMENT COMPLETED  1.000E-03,  FRACTION OF STEP COMPLETED  0.990    
 STEP TIME COMPLETED       0.495    ,  TOTAL TIME COMPLETED        0.495    


  INCREMENT   496 STARTS. ATTEMPT NUMBER  1, TIME INCREMENT  1.000E-03

  NUMBER OF EQUATIONS =       81     NUMBER OF FLOATING PT. OPERATIONS =  2.70E+04

     CHECK POINT   START OF SOLVER    

     CHECK POINT  END OF SOLVER       

       ELAPSED USER TIME (SEC)      =   0.0000    
       ELAPSED SYSTEM TIME (SEC)    =  1.00000E-02
       ELAPSED TOTAL CPU TIME (SEC) =  1.00000E-02
       ELAPSED WALLCLOCK TIME (SEC) =          0

               CONVERGENCE CHECKS FOR EQUILIBRIUM ITERATION     1


 AVERAGE FORCE                       283.       TIME AVG. FORCE        897.    
 LARGEST RESIDUAL FORCE            -2.840E-04   AT NODE          3   DOF  1
   INSTANCE:                                                                                 
 LARGEST INCREMENT OF DISP.         1.165E-02   AT NODE          7   DOF  2
   INSTANCE: {assembly node}                                                                 
 LARGEST CORRECTION TO DISP.        2.450E-04   AT NODE          7   DOF  2
   INSTANCE: {assembly node}                                                                 
 ESTIMATE OF DISP.    CORRECTION    2.421E-11
 FORCE     EQUILIB. ACCEPTED BASED ON SMALL RESIDUAL AND ESTIMATED CORRECTION

 AVERAGE MOMENT                      6.70       TIME AVG. MOMENT       10.0    
 LARGEST RESIDUAL MOMENT            1.537E-05   AT NODE          1   DOF  6
   INSTANCE:                                                                                 
 LARGEST INCREMENT OF ROTATION      1.159E-02   AT NODE          5   DOF  6
   INSTANCE: {assembly node}                                                                 
 LARGEST CORRECTION TO ROTATION     2.073E-04   AT NODE          1   DOF  6
   INSTANCE: {assembly node}                                                                 
 ESTIMATE OF ROTATION CORRECTION    7.707E-09
 MOMENT    EQUILIB. ACCEPTED BASED ON SMALL RESIDUAL AND ESTIMATED CORRECTION

 ITERATION SUMMARY FOR THE INCREMENT:   1 TOTAL ITERATIONS, OF WHICH
   0 ARE SEVERE DISCONTINUITY ITERATIONS AND  1 ARE EQUILIBRIUM ITERATIONS.

 TIME INCREMENT COMPLETED  1.000E-03,  FRACTION OF STEP COMPLETED  0.992    
 STEP TIME COMPLETED       0.496    ,  TOTAL TIME COMPLETED        0.496    


  INCREMENT   497 STARTS. ATTEMPT NUMBER  1, TIME INCREMENT  1.000E-03

  NUMBER OF EQUATIONS =       81     NUMBER OF FLOATING PT. OPERATIONS =  2.70E+04

     CHECK POINT   START OF SOLVER    

     CHECK POINT  END OF SOLVER       

       ELAPSED USER TIME (SEC)      =  1.00000E-02
       ELAPSED SYSTEM TIME (SEC)    =   0.0000    
       ELAPSED TOTAL CPU TIME (SEC) =  1.00000E-02
       ELAPSED WALLCLOCK TIME (SEC) =          0

               CONVERGENCE CHECKS FOR EQUILIBRIUM ITERATION     1


 AVERAGE FORCE                       291.       TIME AVG. FORCE        895.    
 LARGEST RESIDUAL FORCE            -3.275E-04   AT NODE          3   DOF  1
   INSTANCE:                                                                                 
 LARGEST INCREMENT OF DISP.         1.190E-02   AT NODE          7   DOF  2
   INSTANCE: {assembly node}                                                                 
 LARGEST CORRECTION TO DISP.        2.530E-04   AT NODE          7   DOF  2
   INSTANCE: {assembly node}                                                                 
 ESTIMATE OF DISP.    CORRECTION    2.932E-11
 FORCE     EQUILIB. ACCEPTED BASED ON SMALL RESIDUAL AND ESTIMATED CORRECTION

 AVERAGE MOMENT                      6.92       TIME AVG. MOMENT       10.0    
 LARGEST RESIDUAL MOMENT            1.641E-05   AT NODE          1   DOF  6
   INSTANCE:                                                                                 
 LARGEST INCREMENT OF ROTATION      1.180E-02   AT NODE          5   DOF  6
   INSTANCE: {assembly node}                                                                 
 LARGEST CORRECTION TO ROTATION     2.140E-04   AT NODE          1   DOF  6
   INSTANCE: {assembly node}                                                                 
 ESTIMATE OF ROTATION CORRECTION    8.228E-09
 MOMENT    EQUILIB. ACCEPTED BASED ON SMALL RESIDUAL AND ESTIMATED CORRECTION

 ITERATION SUMMARY FOR THE INCREMENT:   1 TOTAL ITERATIONS, OF WHICH
   0 ARE SEVERE DISCONTINUITY ITERATIONS AND  1 ARE EQUILIBRIUM ITERATIONS.

 TIME INCREMENT COMPLETED  1.000E-03,  FRACTION OF STEP COMPLETED  0.994    
 STEP TIME COMPLETED       0.497    ,  TOTAL TIME COMPLETED        0.497    


  INCREMENT   498 STARTS. ATTEMPT NUMBER  1, TIME INCREMENT  1.000E-03

  NUMBER OF EQUATIONS =       81     NUMBER OF FLOATING PT. OPERATIONS =  2.70E+04

     CHECK POINT   START OF SOLVER    

     CHECK POINT  END OF SOLVER       

       ELAPSED USER TIME (SEC)      =  1.00000E-02
       ELAPSED SYSTEM TIME (SEC)    =   0.0000    
       ELAPSED TOTAL CPU TIME (SEC) =  1.00000E-02
       ELAPSED WALLCLOCK TIME (SEC) =          0

               CONVERGENCE CHECKS FOR EQUILIBRIUM ITERATION     1


 AVERAGE FORCE                       301.       TIME AVG. FORCE        894.    
 LARGEST RESIDUAL FORCE            -3.792E-04   AT NODE          3   DOF  1
   INSTANCE:                                                                                 
 LARGEST INCREMENT OF DISP.         1.216E-02   AT NODE          7   DOF  2
   INSTANCE: {assembly node}                                                                 
 LARGEST CORRECTION TO DISP.        2.617E-04   AT NODE          7   DOF  2
   INSTANCE: {assembly node}                                                                 
 ESTIMATE OF DISP.    CORRECTION    3.578E-11
 FORCE     EQUILIB. ACCEPTED BASED ON SMALL RESIDUAL AND ESTIMATED CORRECTION

 AVERAGE MOMENT                      7.16       TIME AVG. MOMENT       10.0    
 LARGEST RESIDUAL MOMENT            1.755E-05   AT NODE          1   DOF  6
   INSTANCE:                                                                                 
 LARGEST INCREMENT OF ROTATION      1.202E-02   AT NODE          2   DOF  6
   INSTANCE: {assembly node}                                                                 
 LARGEST CORRECTION TO ROTATION     2.212E-04   AT NODE          1   DOF  6
   INSTANCE: {assembly node}                                                                 
 ESTIMATE OF ROTATION CORRECTION    8.798E-09
 MOMENT    EQUILIB. ACCEPTED BASED ON SMALL RESIDUAL AND ESTIMATED CORRECTION

 ITERATION SUMMARY FOR THE INCREMENT:   1 TOTAL ITERATIONS, OF WHICH
   0 ARE SEVERE DISCONTINUITY ITERATIONS AND  1 ARE EQUILIBRIUM ITERATIONS.

 TIME INCREMENT COMPLETED  1.000E-03,  FRACTION OF STEP COMPLETED  0.996    
 STEP TIME COMPLETED       0.498    ,  TOTAL TIME COMPLETED        0.498    


  INCREMENT   499 STARTS. ATTEMPT NUMBER  1, TIME INCREMENT  1.000E-03

  NUMBER OF EQUATIONS =       81     NUMBER OF FLOATING PT. OPERATIONS =  2.70E+04

     CHECK POINT   START OF SOLVER    

     CHECK POINT  END OF SOLVER       

       ELAPSED USER TIME (SEC)      =  1.00000E-02
       ELAPSED SYSTEM TIME (SEC)    =   0.0000    
       ELAPSED TOTAL CPU TIME (SEC) =  1.00000E-02
       ELAPSED WALLCLOCK TIME (SEC) =          0

               CONVERGENCE CHECKS FOR EQUILIBRIUM ITERATION     1


 AVERAGE FORCE                       311.       TIME AVG. FORCE        893.    
 LARGEST RESIDUAL FORCE            -4.411E-04   AT NODE          3   DOF  1
   INSTANCE:                                                                                 
 LARGEST INCREMENT OF DISP.         1.243E-02   AT NODE          7   DOF  2
   INSTANCE: {assembly node}                                                                 
 LARGEST CORRECTION TO DISP.        2.710E-04   AT NODE          7   DOF  2
   INSTANCE: {assembly node}                                                                 
 ESTIMATE OF DISP.    CORRECTION    4.399E-11
 FORCE     EQUILIB. ACCEPTED BASED ON SMALL RESIDUAL AND ESTIMATED CORRECTION

 AVERAGE MOMENT                      7.41       TIME AVG. MOMENT       10.0    
 LARGEST RESIDUAL MOMENT            1.879E-05   AT NODE          1   DOF  6
   INSTANCE:                                                                                 
 LARGEST INCREMENT OF ROTATION      1.225E-02   AT NODE          5   DOF  6
   INSTANCE: {assembly node}                                                                 
 LARGEST CORRECTION TO ROTATION     2.290E-04   AT NODE          5   DOF  6
   INSTANCE: {assembly node}                                                                 
 ESTIMATE OF ROTATION CORRECTION    9.423E-09
 MOMENT    EQUILIB. ACCEPTED BASED ON SMALL RESIDUAL AND ESTIMATED CORRECTION

 ITERATION SUMMARY FOR THE INCREMENT:   1 TOTAL ITERATIONS, OF WHICH
   0 ARE SEVERE DISCONTINUITY ITERATIONS AND  1 ARE EQUILIBRIUM ITERATIONS.

 TIME INCREMENT COMPLETED  1.000E-03,  FRACTION OF STEP COMPLETED  0.998    
 STEP TIME COMPLETED       0.499    ,  TOTAL TIME COMPLETED        0.499    


  INCREMENT   500 STARTS. ATTEMPT NUMBER  1, TIME INCREMENT  1.000E-03

  NUMBER OF EQUATIONS =       81     NUMBER OF FLOATING PT. OPERATIONS =  2.70E+04

     CHECK POINT   START OF SOLVER    

     CHECK POINT  END OF SOLVER       

       ELAPSED USER TIME (SEC)      =   0.0000    
       ELAPSED SYSTEM TIME (SEC)    =   0.0000    
       ELAPSED TOTAL CPU TIME (SEC) =   0.0000    
       ELAPSED WALLCLOCK TIME (SEC) =          0

               CONVERGENCE CHECKS FOR EQUILIBRIUM ITERATION     1


 AVERAGE FORCE                       323.       TIME AVG. FORCE        892.    
 LARGEST RESIDUAL FORCE            -5.153E-04   AT NODE          3   DOF  1
   INSTANCE:                                                                                 
 LARGEST INCREMENT OF DISP.         1.272E-02   AT NODE          7   DOF  2
   INSTANCE: {assembly node}                                                                 
 LARGEST CORRECTION TO DISP.        2.810E-04   AT NODE          7   DOF  2
   INSTANCE: {assembly node}                                                                 
 ESTIMATE OF DISP.    CORRECTION    5.454E-11
 FORCE     EQUILIB. ACCEPTED BASED ON SMALL RESIDUAL AND ESTIMATED CORRECTION

 AVERAGE MOMENT                      7.69       TIME AVG. MOMENT       10.0    
 LARGEST RESIDUAL MOMENT            2.016E-05   AT NODE          1   DOF  6
   INSTANCE:                                                                                 
 LARGEST INCREMENT OF ROTATION      1.249E-02   AT NODE          2   DOF  6
   INSTANCE: {assembly node}                                                                 
 LARGEST CORRECTION TO ROTATION     2.375E-04   AT NODE          1   DOF  6
   INSTANCE: {assembly node}                                                                 
 ESTIMATE OF ROTATION CORRECTION    1.011E-08
 MOMENT    EQUILIB. ACCEPTED BASED ON SMALL RESIDUAL AND ESTIMATED CORRECTION

 ITERATION SUMMARY FOR THE INCREMENT:   1 TOTAL ITERATIONS, OF WHICH
   0 ARE SEVERE DISCONTINUITY ITERATIONS AND  1 ARE EQUILIBRIUM ITERATIONS.

 TIME INCREMENT COMPLETED  1.000E-03,  FRACTION OF STEP COMPLETED   1.00    
 STEP TIME COMPLETED       0.500    ,  TOTAL TIME COMPLETED        0.500    


          THE ANALYSIS HAS BEEN COMPLETED



     ANALYSIS SUMMARY:
     TOTAL OF        500  INCREMENTS
                       0  CUTBACKS IN AUTOMATIC INCREMENTATION
                     535  ITERATIONS INCLUDING CONTACT ITERATIONS IF PRESENT
                     535  PASSES THROUGH THE EQUATION SOLVER OF WHICH 
                     535  INVOLVE MATRIX DECOMPOSITION, INCLUDING
                       0  DECOMPOSITION(S) OF THE MASS MATRIX
                       1  REORDERING OF EQUATIONS TO MINIMIZE WAVEFRONT
                       0  ADDITIONAL RESIDUAL EVALUATIONS FOR LINE SEARCHES
                       0  ADDITIONAL OPERATOR EVALUATIONS FOR LINE SEARCHES
                       1  WARNING MESSAGES DURING USER INPUT PROCESSING
                    8191  WARNING MESSAGES DURING ANALYSIS
                    8025  ANALYSIS WARNINGS ARE NUMERICAL PROBLEM MESSAGES
                     143  ANALYSIS WARNINGS ARE NEGATIVE EIGENVALUE MESSAGES
                       0  ERROR MESSAGES



     JOB TIME SUMMARY
       USER TIME (SEC)      =   17.260    
       SYSTEM TIME (SEC)    =   3.2900    
       TOTAL CPU TIME (SEC) =   20.550    
       WALLCLOCK TIME (SEC) =         21
